pglib_opf_case13659_pegase/dapi/pglib_opf_case13659_pegase_10regions_dapi.m
% -------------------------------------------------------------------------
% Partitioned MATPOWER Case File
% Copyright (c) 2025 Milad Hasanzadeh
% Generated on: 2026-06-14
% This file contains partitioned data for 10 regions


% -------------------- mpc_regionR1 --------------------

mpc_regionR1.version = '2';
mpc_regionR1.baseMVA = 100.0000;
mpc_regionR1.bus = [
%	bus_i       type        Pd          Qd          Gs          Bs          area        Vm          Va          baseKV      zone        Vmax        Vmin        
	 1	 1	 146.29	 19.1	 0	 0.08	 0	 1	 0	 154	 1	 1.1	 0.9;
	 2	 1	 0	-0	 0	 3.41	 0	 1	 0	 154	 1	 1.1	 0.9;
	 3	 1	 15.61	 2	 0	 1.91	 0	 1	 0	 154	 1	 1.1	 0.9;
	 4	 1	 33.41	 4.3	 0	 5.15	 0	 1	 0	 154	 1	 1.1	 0.9;
	 5	 1	 1.53	 0.2	 0	 4.93	 0	 1	 0	 154	 1	 1.1	 0.9;
	 6	 2	 0	 0	 0	 0	 0	 1	 0	 11	 1	 1.1	 0.9;
	 7	 2	 0	 0	 0	 0	 0	 1	 0	 14.4	 1	 1.1	 0.9;
	 8	 1	 30.46	 4	 0	 4.23	 0	 1	 0	 154	 1	 1.1	 0.9;
	 9	 1	 23.58	 3	 0	 3.54	 0	 1	 0	 154	 1	 1.1	 0.9;
	 10	 2	 0	 0	 0	 0	 0	 1	 0	 11	 1	 1.1	 0.9;
	 11	 1	 22.82	 3	 0	 5.74	 0	 1	 0	 154	 1	 1.1	 0.9;
	 12	 2	 0	 0	 0	 0	 0	 1	 0	 11	 1	 1.1	 0.9;
	 13	 2	 0	 0	 0	 0	 0	 1	 0	 13.8	 1	 1.1	 0.9;
	 14	 1	 149.57	 19.5	 0	 4.9	 0	 1	 0	 154	 1	 1.1	 0.9;
	 15	 1	 60.81	 7.9	 0	 4.21	 0	 1	 0	 154	 1	 1.1	 0.9;
	 16	 1	 59.17	 7.8	 0	 94.9	 0	 1	 0	 400	 1	 1.1	 0.9;
	 17	 1	 143.83	 24.35	 0	 4.48	 0	 1	 0	 154	 1	 1.1	 0.9;
	 18	 1	 0	 0	 0	 107.29	 0	 1	 0	 400	 1	 1.1	 0.9;
	 19	 1	 86.68	 11.3	 0	 4.92	 0	 1	 0	 154	 1	 1.1	 0.9;
	 20	 1	 18.23	 2.4	 0	 6.09	 0	 1	 0	 154	 1	 1.1	 0.9;
	 21	 2	 0	 0	 0	 0	 0	 1	 0	 10.6	 1	 1.1	 0.9;
	 22	 1	 22.82	 3	 0	 4.11	 0	 1	 0	 154	 1	 1.1	 0.9;
	 23	 2	 0	 0	 0	 0	 0	 1	 0	 10.6	 1	 1.1	 0.9;
	 24	 2	 0	 0	 0	 0	 0	 1	 0	 21	 1	 1.1	 0.9;
	 25	 2	 0	 0	 0	 0	 0	 1	 0	 11	 1	 1.1	 0.9;
	 26	 1	 19.87	 2.6	 0	 12.38	 0	 1	 0	 154	 1	 1.1	 0.9;
	 27	 2	 0	 0	 0	 0	 0	 1	 0	 14.4	 1	 1.1	 0.9;
	 28	 2	 0	 0	 0	 0	 0	 1	 0	 6.3	 1	 1.1	 0.9;
	 29	 2	 0	 0	 0	 0	 0	 1	 0	 11	 1	 1.1	 0.9;
	 30	 2	 0	 0	 0	 0	 0	 1	 0	 6.3	 1	 1.1	 0.9;
	 31	 2	 0	 0	 0	 0	 0	 1	 0	 11	 1	 1.1	 0.9;
	 32	 2	 0	 0	 0	 0	 0	 1	 0	 6.3	 1	 1.1	 0.9;
	 33	 2	 0	 0	 0	 0	 0	 1	 0	 13.8	 1	 1.1	 0.9;
	 34	 2	 0	 0	 0	 0	 0	 1	 0	 6.3	 1	 1.1	 0.9;
	 35	 2	 0	 0	 0	 0	 0	 1	 0	 15.75	 1	 1.1	 0.9;
	 36	 1	 129.26	 16.9	 0	 8.02	 0	 1	 0	 154	 1	 1.1	 0.9;
	 37	 1	 96.07	 12.6	 0	 22.25	 0	 1	 0	 154	 1	 1.1	 0.9;
	 38	 2	 0	 0	 0	 0	 0	 1	 0	 6.3	 1	 1.1	 0.9;
	 39	 2	 0	 0	 0	 0	 0	 1	 0	 10.3	 1	 1.1	 0.9;
	 40	 1	 53.28	 6.9	 0	 3.11	 0	 1	 0	 154	 1	 1.1	 0.9;
	 41	 2	 0	 0	 0	 0	 0	 1	 0	 6.3	 1	 1.1	 0.9;
	 42	 1	 110.92	 14.5	 0	 1.94	 0	 1	 0	 154	 1	 1.1	 0.9;
	 43	 2	 0	 0	 0	 0	 0	 1	 0	 6.3	 1	 1.1	 0.9;
	 44	 1	 22.82	 3	 0	 2.65	 0	 1	 0	 154	 1	 1.1	 0.9;
	 45	 1	 0	-0	 0	 0.06	 0	 1	 0	 154	 1	 1.1	 0.9;
	 46	 1	 167.36	 21.8	 0	 18.25	 0	 1	 0	 154	 1	 1.1	 0.9;
	 47	 1	-0	 0	 0	 141.93	 0	 1	 0	 400	 1	 1.1	 0.9;
	 48	 1	 36.57	 4.8	 0	 5.48	 0	 1	 0	 154	 1	 1.1	 0.9;
	 49	 1	 141.81	 18.5	 0	 0.38	 0	 1	 0	 154	 1	 1.1	 0.9;
	 50	 1	-0	 0	 0	 0.22	 0	 1	 0	 154	 1	 1.1	 0.9;
	 51	 2	 0	 0	 0	 0	 0	 1	 0	 15	 1	 1.1	 0.9;
	 52	 2	 0	 0	 0	 0	 0	 1	 0	 13.8	 1	 1.1	 0.9;
	 53	 1	 0	-0	 0	 2.27	 0	 1	 0	 154	 1	 1.1	 0.9;
	 54	 2	 0	 0	 0	 0	 0	 1	 0	 11	 1	 1.1	 0.9;
	 55	 2	 0	 0	 0	 0	 0	 1	 0	 13.8	 1	 1.1	 0.9;
	 56	 1	 22.82	 3	 0	 2.54	 0	 1	 0	 154	 1	 1.1	 0.9;
	 57	 1	 137.88	 17.9	 0	 2.59	 0	 1	 0	 154	 1	 1.1	 0.9;
	 58	 1	 28.82	 3.8	 0	 4.65	 0	 1	 0	 154	 1	 1.1	 0.9;
	 59	 2	 0	 0	 0	 0	 0	 1	 0	 11	 1	 1.1	 0.9;
	 60	 1	 91.6	 11.9	 0	 1.14	 0	 1	 0	 154	 1	 1.1	 0.9;
	 61	 2	 0	 0	 0	 0	 0	 1	 0	 11	 1	 1.1	 0.9;
	 62	 1	 10.59	 1.4	 0	 4.89	 0	 1	 0	 154	 1	 1.1	 0.9;
	 63	 1	 25.87	 3.4	 0	 8.13	 0	 1	 0	 154	 1	 1.1	 0.9;
	 64	 2	 0	 0	 0	 0	 0	 1	 0	 11	 1	 1.1	 0.9;
	 65	 1	 44.21	 5.7	 0	 3.9	 0	 1	 0	 154	 1	 1.1	 0.9;
	 66	 2	 0	 0	 0	 0	 0	 1	 0	 11	 1	 1.1	 0.9;
	 67	 1	 7.64	 1	 0	 1.3	 0	 1	 0	 154	 1	 1.1	 0.9;
	 68	 1	 95.85	 12.5	 0	 0.38	 0	 1	 0	 154	 1	 1.1	 0.9;
	 69	 2	 0	 0	 0	 0	 0	 1	 0	 11	 1	 1.1	 0.9;
	 70	 1	 43.67	 5.7	 0	 2.06	 0	 1	 0	 154	 1	 1.1	 0.9;
	 71	 1	 0	 0	 0	 1.32	 0	 1	 0	 154	 1	 1.1	 0.9;
	 72	 2	 0	 0	 0	 0	 0	 1	 0	 11	 1	 1.1	 0.9;
	 73	 1	 0	-0	 0	 0.09	 0	 1	 0	 154	 1	 1.1	 0.9;
	 74	 2	 0	 0	 0	 0	 0	 1	 0	 10	 1	 1.1	 0.9;
	 75	 1	 27.29	 3.6	 0	 4.73	 0	 1	 0	 154	 1	 1.1	 0.9;
	 76	 2	 0	 0	 0	 0	 0	 1	 0	 11	 1	 1.1	 0.9;
	 77	 1	 128.93	 16.8	 0	 2.94	 0	 1	 0	 154	 1	 1.1	 0.9;
	 78	 1	 78.6	 10.3	 0	 6.24	 0	 1	 0	 154	 1	 1.1	 0.9;
	 79	 1	 53.28	 6.9	 0	 0.12	 0	 1	 0	 154	 1	 1.1	 0.9;
	 80	 1	 25.55	 3.3	 0	 1.91	 0	 1	 0	 154	 1	 1.1	 0.9;
	 81	 1	 39.41	 5.2	 0	 11.12	 0	 1	 0	 154	 1	 1.1	 0.9;
	 82	 2	 0	 0	 0	 0	 0	 1	 0	 15	 1	 1.1	 0.9;
	 83	 1	 25.98	 3.4	 0	 6.09	 0	 1	 0	 154	 1	 1.1	 0.9;
	 84	 2	 0	 0	 0	 0	 0	 1	 0	 11	 1	 1.1	 0.9;
	 85	 1	 0	-0	 0	 1.18	 0	 1	 0	 154	 1	 1.1	 0.9;
	 86	 1	 209.94	 27.4	 0	 30.64	 0	 1	 0	 400	 1	 1.1	 0.9;
	 87	 1	 10.59	 1.4	 0	 6.56	 0	 1	 0	 154	 1	 1.1	 0.9;
	 88	 2	 0	 0	 0	 0	 0	 1	 0	 13.8	 1	 1.1	 0.9;
	 89	 2	 0	 0	 0	 0	 0	 1	 0	 11	 1	 1.1	 0.9;
	 90	 1	 53.28	 6.9	 0	 5.14	 0	 1	 0	 154	 1	 1.1	 0.9;
	 91	 2	 0	 0	 0	 0	 0	 1	 0	 11	 1	 1.1	 0.9;
	 92	 1	 91.27	 11.9	 0	 3.53	 0	 1	 0	 154	 1	 1.1	 0.9;
	 93	 2	 0	 0	 0	 0	 0	 1	 0	 11	 1	 1.1	 0.9;
	 94	 2	 0	 0	 0	 0	 0	 1	 0	 15.75	 1	 1.1	 0.9;
	 95	 1	 68.45	 9	 0	 3.22	 0	 1	 0	 154	 1	 1.1	 0.9;
	 96	 1	 0	-0	 0	 113.86	 0	 1	 0	 400	 1	 1.1	 0.9;
	 97	 2	 0	 0	 0	 0	 0	 1	 0	 11	 1	 1.1	 0.9;
	 98	 1	 114.19	 14.9	 0	 7.35	 0	 1	 0	 154	 1	 1.1	 0.9;
	 99	 1	-0	 0	 0	 2.17	 0	 1	 0	 154	 1	 1.1	 0.9;
	 100	 2	 0	 0	 0	 0	 0	 1	 0	 10.6	 1	 1.1	 0.9;
	 101	 1	 0	-0	 0	 4.58	 0	 1	 0	 154	 1	 1.1	 0.9;
	 102	 2	 0	 0	 0	 0	 0	 1	 0	 19	 1	 1.1	 0.9;
	 103	 2	 0	 0	 0	 0	 0	 1	 0	 11	 1	 1.1	 0.9;
	 104	 1	 31.55	 4.2	 0	 2.09	 0	 1	 0	 154	 1	 1.1	 0.9;
	 105	 1	-0	-0	 0	 1.54	 0	 1	 0	 154	 1	 1.1	 0.9;
	 106	 1	-0	-0	 0	 1.44	 0	 1	 0	 154	 1	 1.1	 0.9;
	 107	 2	 0	 0	 0	 0	 0	 1	 0	 15.75	 1	 1.1	 0.9;
	 108	 1	 10.59	 1.4	 0	 4.22	 0	 1	 0	 154	 1	 1.1	 0.9;
	 109	 2	 0	 0	 0	 0	 0	 1	 0	 15.75	 1	 1.1	 0.9;
	 110	 1	 0	 0	 0	 66.22	 0	 1	 0	 400	 1	 1.1	 0.9;
	 111	 1	 13.76	 1.8	 0	 1.89	 0	 1	 0	 154	 1	 1.1	 0.9;
	 112	 1	 35.04	 4.5	 0	 8.93	 0	 1	 0	 154	 1	 1.1	 0.9;
	 113	 1	 0	 0	 0	 0.01	 0	 1	 0	 154	 1	 1.1	 0.9;
	 114	 2	 0	 0	 0	 0	 0	 1	 0	 11	 1	 1.1	 0.9;
	 115	 1	 0	-0	 0	 56.7	 0	 1	 0	 400	 1	 1.1	 0.9;
	 116	 1	 15.17	 1.9	 0	 7.37	 0	 1	 0	 154	 1	 1.1	 0.9;
	 117	 1	 20.2	 2.7	 0	 0.11	 0	 1	 0	 154	 1	 1.1	 0.9;
	 118	 1	 0	 0	 0	 5.46	 0	 1	 0	 154	 1	 1.1	 0.9;
	 119	 1	 121.62	 15.9	 0	 2.36	 0	 1	 0	 154	 1	 1.1	 0.9;
	 120	 2	 0	 0	 0	 0	 0	 1	 0	 11	 1	 1.1	 0.9;
	 121	 2	 0	 0	 0	 0	 0	 1	 0	 13.8	 1	 1.1	 0.9;
	 122	 1	 0	-0	 0	 1.81	 0	 1	 0	 154	 1	 1.1	 0.9;
	 123	 1	 167.58	 21.9	 0	 7.79	 0	 1	 0	 154	 1	 1.1	 0.9;
	 124	 2	 0	 0	 0	 0	 0	 1	 0	 15.75	 1	 1.1	 0.9;
	 125	 1	 6.88	 0.9	 0	 3.82	 0	 1	 0	 154	 1	 1.1	 0.9;
	 126	 1	 53.28	 6.9	 0	 6.16	 0	 1	 0	 154	 1	 1.1	 0.9;
	 127	 1	-0	-0	 0	 110.25	 0	 1	 0	 400	 1	 1.1	 0.9;
	 128	 1	 69.87	 9.1	 0	 12.23	 0	 1	 0	 154	 1	 1.1	 0.9;
	 129	 2	 0	 0	 0	 0	 0	 1	 0	 6.3	 1	 1.1	 0.9;
	 130	 1	 0	-0	 0	 49.26	 0	 1	 0	 400	 1	 1.1	 0.9;
	 131	 1	 68.45	 9	 0	 2.94	 0	 1	 0	 154	 1	 1.1	 0.9;
	 132	 2	 0	 0	 0	 0	 0	 1	 0	 6.3	 1	 1.1	 0.9;
	 133	 1	 30.46	 4	 0	 0.29	 0	 1	 0	 154	 1	 1.1	 0.9;
	 134	 2	 0	 0	 0	 0	 0	 1	 0	 6.3	 1	 1.1	 0.9;
	 135	 2	 0	 0	 0	 0	 0	 1	 0	 6.3	 1	 1.1	 0.9;
	 136	 1	 37.34	 4.9	 0	 9.08	 0	 1	 0	 154	 1	 1.1	 0.9;
	 137	 1	 0	 0	 0	 11.44	 0	 1	 0	 154	 1	 1.1	 0.9;
	 138	 1	 44.21	 5.7	 0	 3.2	 0	 1	 0	 154	 1	 1.1	 0.9;
	 139	 1	 91.27	 11.9	 0	 6.56	 0	 1	 0	 154	 1	 1.1	 0.9;
	 140	 2	 0	 0	 0	 0	 0	 1	 0	 10.5	 1	 1.1	 0.9;
	 141	 1	 53.28	 6.9	 0	 7.95	 0	 1	 0	 154	 1	 1.1	 0.9;
	 142	 2	 0	 0	 0	 0	 0	 1	 0	 6.3	 1	 1.1	 0.9;
	 143	 1	 42.69	 5.5	 0	 3.82	 0	 1	 0	 154	 1	 1.1	 0.9;
	 144	 1	 0	-0	 0	 4	 0	 1	 0	 154	 1	 1.1	 0.9;
	 145	 2	 0	 0	 0	 0	 0	 1	 0	 10.5	 1	 1.1	 0.9;
	 146	 2	 0	 0	 0	 0	 0	 1	 0	 6.3	 1	 1.1	 0.9;
	 147	 1	 22.82	 3	 0	 5.46	 0	 1	 0	 154	 1	 1.1	 0.9;
	 148	 1	 0	-0	 0	 6.12	 0	 1	 0	 400	 1	 1.1	 0.9;
	 149	 1	-0	-0	 0	 0	 0	 1	 0	 400	 1	 1.1	 0.9;
	 150	 1	 24.56	 3.2	 0	 5.11	 0	 1	 0	 154	 1	 1.1	 0.9;
	 151	 1	 113.43	 14.8	 0	 1.91	 0	 1	 0	 154	 1	 1.1	 0.9;
	 152	 2	 0	 0	 0	 0	 0	 1	 0	 15	 1	 1.1	 0.9;
	 153	 2	 0	 0	 0	 0	 0	 1	 0	 11	 1	 1.1	 0.9;
	 154	 2	 0	 0	 0	 0	 0	 1	 0	 11	 1	 1.1	 0.9;
	 155	 1	 0	-0	 0	 46.01	 0	 1	 0	 400	 1	 1.1	 0.9;
	 156	 1	 60.81	 7.9	 0	 2.62	 0	 1	 0	 154	 1	 1.1	 0.9;
	 157	 1	 4.04	 0.6	 0	 0.01	 0	 1	 0	 154	 1	 1.1	 0.9;
	 158	 1	 126.86	 16.5	 0	 7.8	 0	 1	 0	 154	 1	 1.1	 0.9;
	 159	 1	 27.4	 3.6	 0	 6.2	 0	 1	 0	 154	 1	 1.1	 0.9;
	 160	 1	 68.45	 9	 0	 3.18	 0	 1	 0	 154	 1	 1.1	 0.9;
	 161	 1	 40.72	 5.4	 0	 0.12	 0	 1	 0	 154	 1	 1.1	 0.9;
	 162	 1	 6	 0.8	 0	 1.19	 0	 1	 0	 154	 1	 1.1	 0.9;
	 163	 1	 45.63	 5.9	 0	 1.75	 0	 1	 0	 154	 1	 1.1	 0.9;
	 164	 1	 15.17	 1.9	 0	 0.38	 0	 1	 0	 154	 1	 1.1	 0.9;
	 165	 1	 32.53	 4.3	 0	 2.04	 0	 1	 0	 154	 1	 1.1	 0.9;
	 166	 1	 28.82	 3.8	 0	 0.7	 0	 1	 0	 154	 1	 1.1	 0.9;
	 167	 1	 0	 0	 0	 2.25	 0	 1	 0	 154	 1	 1.1	 0.9;
	 168	 1	 4.69	 0.6	 0	 4.43	 0	 1	 0	 154	 1	 1.1	 0.9;
	 169	 1	 48.69	 6.4	 0	 0.17	 0	 1	 0	 154	 1	 1.1	 0.9;
	 170	 2	 0	 0	 0	 0	 0	 1	 0	 14.4	 1	 1.1	 0.9;
	 171	 2	 0	 0	 0	 0	 0	 1	 0	 13.8	 1	 1.1	 0.9;
	 172	 1	 135.48	 17.6	 0	 6.03	 0	 1	 0	 154	 1	 1.1	 0.9;
	 173	 1	 25.55	 3.3	 0	 6.88	 0	 1	 0	 154	 1	 1.1	 0.9;
	 174	 2	 0	 0	 0	 0	 0	 1	 0	 15.75	 1	 1.1	 0.9;
	 175	 1	 18.23	 2.4	 0	 0.87	 0	 1	 0	 154	 1	 1.1	 0.9;
	 176	 1	 19.87	 2.6	 0	 1.51	 0	 1	 0	 154	 1	 1.1	 0.9;
	 177	 2	 0	 0	 0	 0	 0	 1	 0	 13.8	 1	 1.1	 0.9;
	 178	 1	 115.5	 15.1	 0	 4.91	 0	 1	 0	 154	 1	 1.1	 0.9;
	 179	 1	 15.17	 1.9	 0	 1.02	 0	 1	 0	 154	 1	 1.1	 0.9;
	 180	 2	 0	 0	 0	 0	 0	 1	 0	 11	 1	 1.1	 0.9;
	 181	 2	 0	 0	 0	 0	 0	 1	 0	 11	 1	 1.1	 0.9;
	 182	 1	 38.1	 5	 0	 6.35	 0	 1	 0	 154	 1	 1.1	 0.9;
	 183	 1	 2.29	 0.3	 0	 2.83	 0	 1	 0	 154	 1	 1.1	 0.9;
	 184	 1	 110.15	 14.4	 0	 0.06	 0	 1	 0	 154	 1	 1.1	 0.9;
	 185	 2	 0	 0	 0	 0	 0	 1	 0	 154	 1	 1.1	 0.9;
	 186	 1	 97.71	 12.8	 0	 5.08	 0	 1	 0	 154	 1	 1.1	 0.9;
	 187	 1	 102.51	 13.4	 0	 5.87	 0	 1	 0	 154	 1	 1.1	 0.9;
	 188	 2	 0	 0	 0	 0	 0	 1	 0	 11	 1	 1.1	 0.9;
	 189	 2	 0	 0	 0	 0	 0	 1	 0	 11	 1	 1.1	 0.9;
	 190	 2	 0	 0	 0	 0	 0	 1	 0	 13.8	 1	 1.1	 0.9;
	 191	 1	 75.66	 9.9	 0	 0.03	 0	 1	 0	 154	 1	 1.1	 0.9;
	 192	 1	-0	-0	 0	 2.25	 0	 1	 0	 154	 1	 1.1	 0.9;
	 193	 1	 97.49	 12.8	 0	 4.33	 0	 1	 0	 154	 1	 1.1	 0.9;
	 194	 2	 0	 0	 0	 0	 0	 1	 0	 154	 1	 1.1	 0.9;
	 195	 2	 0	 0	 0	 0	 0	 1	 0	 11	 1	 1.1	 0.9;
	 196	 2	 0	 0	 0	 0	 0	 1	 0	 11	 1	 1.1	 0.9;
	 197	 2	 0	 0	 0	 0	 0	 1	 0	 14.4	 1	 1.1	 0.9;
	 198	 1	 42.8	 5.5	 0	 7.25	 0	 1	 0	 154	 1	 1.1	 0.9;
	 199	 2	 0	 0	 0	 0	 0	 1	 0	 15	 1	 1.1	 0.9;
	 200	 1	 69.87	 9.1	 0	 9.94	 0	 1	 0	 154	 1	 1.1	 0.9;
...
];

mpc_regionR1.gen = [
%	bus         Pg          Qg          Qmax        Qmin        Vg          mBase       status      Pmax        Pmin        Pc1         Pc2         Qc1min      Qc1max      Qc2min      Qc2max      ramp_agc    ramp_10     ramp_30     ramp_q      apf         
	 6	 36.1825	 0	 34	-34	 1	 100	 1	 67	 5.365;
	 7	 227	 0	 202	-202	 1	 100	 1	 404	 50;
	 10	 38.94	 0	 36	-36	 1	 100	 1	 72	 5.88;
	 12	 20.5875	 0	 20	-20	 1	 100	 1	 39	 2.175;
	 13	 172	 1.5	 150	-147	 1	 100	 1	 294	 50;
	 21	 20.3675	 0	 19	-19	 1	 100	 1	 38	 2.735;
	 23	 34.5675	 0	 32	-32	 1	 100	 1	 63	 6.135;
	 24	 398	 11	 320	-298	 1	 100	 1	 596	 200;
	 25	 10.3325	 0	 10	-10	 1	 100	 1	 18	 2.665;
	 27	 74.4675	 0	 59	-59	 1	 100	 1	 118	 30.935;
	 28	 51.5	 0	 48	-48	 1	 100	 1	 96	 7;
	 29	 176	 0	 151	-151	 1	 100	 1	 302	 50;
	 30	 4.3425	 0	 10	-10	 1	 100	 1	 8	 0.685;
	 31	 12.3325	 0	 12	-12	 1	 100	 1	 23	 1.665;
	 32	 19.3	 0	 19	-19	 1	 100	 1	 37	 1.6;
	 33	 67.1025	 0	 63	-63	 1	 100	 1	 125	 9.205;
	 34	 5.8325	 0	 10	-10	 1	 100	 1	 11	 0.665;
	 35	 97.8675	 14	 110	-82	 1	 100	 1	 164	 31.735;
	 38	 11.1725	 0	 11	-11	 1	 100	 1	 22	 0.345;
	 39	 80.25	 0	 65	-65	 1	 100	 1	 129	 31.5;
	 41	 3.165	 0	 10	-10	 1	 100	 1	 6	 0.33;
	 43	 12.25	 0	 12	-12	 1	 100	 1	 23	 1.5;
	 51	 126	 0	 101	-101	 1	 100	 1	 202	 50;
	 52	 78.1	 0	 73	-73	 1	 100	 1	 146	 10.2;
	 54	 142.0825	 0	 134	-134	 1	 100	 1	 267	 17.165;
	 55	 12.6675	 0	 12	-12	 1	 100	 1	 23	 2.335;
	 59	 6.9675	 0	 10	-10	 1	 100	 1	 12	 1.935;
	 61	 1.0225	 0	 10	-10	 1	 100	 1	 2	 0.045;
	 64	 25.7	 0	 22	-22	 1	 100	 1	 43	 8.4;
	 66	 26.4	 0	 25	-25	 1	 100	 1	 50	 2.8;
	 69	 22.8525	 0	 19	-19	 1	 100	 1	 38	 7.705;
	 72	 54.6675	 0	 52	-52	 1	 100	 1	 104	 5.335;
	 74	 28.1	 0	 25	-25	 1	 100	 1	 49	 7.2;
	 76	 47.715	 0	 43	-43	 1	 100	 1	 85	 10.43;
	 82	 147	 0	 122	-122	 1	 100	 1	 244	 50;
	 84	 87.25	 0	 80	-80	 1	 100	 1	 160	 14.5;
	 88	 49.55	 0	 40	-40	 1	 100	 1	 79	 20.1;
	 89	 35.75	 0	 31	-31	 1	 100	 1	 61	 10.5;
	 91	 6.7	 0	 10	-10	 1	 100	 1	 12	 1.4;
	 93	 54.5	 0	 52	-52	 1	 100	 1	 104	 5;
	 94	 80.875	-6.5	 67	-80	 1	 100	 1	 133	 28.75;
	 97	 6.5575	 0	 10	-10	 1	 100	 1	 13	 0.115;
	 100	 50.6325	 0	 45	-45	 1	 100	 1	 89	 12.265;
	 102	 255.5	 0	 231	-231	 1	 100	 1	 461	 50;
	 103	 3.5125	 0	 10	-10	 1	 100	 1	 7	 0.025;
	 107	 104	 0	 100	-100	 1	 100	 1	 158	 50;
	 109	 350.5	 0	 326	-326	 1	 100	 1	 651	 50;
	 114	 39.7	 0	 36	-36	 1	 100	 1	 71	 8.4;
	 120	 17.5925	 0	 17	-17	 1	 100	 1	 33	 2.185;
	 121	 63.9325	 0	 61	-61	 1	 100	 1	 122	 5.865;
	 124	 122.5	 0	 100	-100	 1	 100	 1	 195	 50;
	 129	 12.8325	 0	 12	-12	 1	 100	 1	 24	 1.665;
	 132	 2.3325	 0	 10	-10	 1	 100	 1	 4	 0.665;
	 134	 23.1675	 0	 22	-22	 1	 100	 1	 44	 2.335;
	 135	 2.2	 0	 10	-10	 1	 100	 1	 4	 0.4;
	 140	 51.1675	 0	 48	-48	 1	 100	 1	 95	 7.335;
	 142	 9.5825	 0	 10	-10	 1	 100	 1	 18	 1.165;
	 145	 55.9675	 0.5	 50	-49	 1	 100	 1	 97	 14.935;
	 146	 7.14	 0	 10	-10	 1	 100	 1	 13	 1.28;
	 152	 14.75	 0	 13	-13	 1	 100	 1	 26	 3.5;
	 153	 13.525	 0	 12	-12	 1	 100	 1	 23	 4.05;
	 154	 29.825	 0	 28	-28	 1	 100	 1	 55	 4.65;
	 170	 141	 0	 116	-116	 1	 100	 1	 232	 50;
	 171	 247	 0	 222	-222	 1	 100	 1	 444	 50;
	 174	 144.875	 0	 131	-131	 1	 100	 1	 261	 28.75;
	 177	 308	 0	 289	-289	 1	 100	 1	 578	 38;
	 180	 15.3675	 0	 15	-15	 1	 100	 1	 29	 1.735;
	 181	 17.5175	 0	 15	-15	 1	 100	 1	 29	 6.035;
	 185	 42.86	 0	 63	-63	 1	 100	 1	 126	-40.28;
	 188	 63.2925	 0	 62	-62	 1	 100	 1	 123	 3.585;
	 189	 61.9175	 0	 59	-59	 1	 100	 1	 118	 5.835;
	 190	 67.55	 0	 58	-58	 1	 100	 1	 115	 20.1;
	 194	-95.385	 0	 63.6	-63.6	 1	 100	 1	 0	-190.77;
	 195	 43.6675	 0	 40	-40	 1	 100	 1	 80	 7.335;
	 196	 179	 0	 154	-154	 1	 100	 1	 308	 50;
	 197	 131.9675	 0	 117	-117	 1	 100	 1	 233	 30.935;
	 199	 189	 0	 164	-164	 1	 100	 1	 328	 50;
	 201	 44.7	 0	 41	-41	 1	 100	 1	 81	 8.4;
	 203	 97.35	 0	 90	-90	 1	 100	 1	 180	 14.7;
	 204	 136.5	 0	 127	-127	 1	 100	 1	 254	 19;
	 208	 99.55	 0	 80	-80	 1	 100	 1	 155	 44.1;
	 210	 1.665	 0	 10	-10	 1	 100	 1	 3	 0.33;
	 213	 79.0625	 0	 75	-75	 1	 100	 1	 149	 9.125;
	 214	 54.34	 0	 51	-51	 1	 100	 1	 101	 7.68;
	 218	 42.4675	 2.5	 40	-35	 1	 100	 1	 70	 14.935;
	 220	 178.6675	 0	 156	-156	 1	 100	 1	 312	 45.335;
	 221	 87.975	 0	 109	-109	 1	 100	 1	 218	-42.05;
	 222	 37.5	 0	 35	-35	 1	 100	 1	 70	 5;
	 223	 32.3325	 0	 30	-30	 1	 100	 1	 60	 4.665;
	 225	 5.8675	 0	 10	-10	 1	 100	 1	 10	 1.735;
	 227	 243.5	 0	 219	-219	 1	 100	 1	 437	 50;
	 229	 2.4175	 0	 10	-10	 1	 100	 1	 4	 0.835;
	 231	 12.0625	 0	 11	-11	 1	 100	 1	 22	 2.125;
	 234	 28.6675	 0	 28	-28	 1	 100	 1	 55	 2.335;
	 236	 3.5625	 0	 10	-10	 1	 100	 1	 6	 1.125;
	 237	 53.7075	 0	 45	-45	 1	 100	 1	 89	 18.415;
	 238	 130	 0	 105	-105	 1	 100	 1	 210	 50;
	 239	 120.0175	 0	 117	-117	 1	 100	 1	 233	 7.035;
	 241	 49.875	 0	 42	-42	 1	 100	 1	 84	 15.75;
	 242	 3.65	 0	 10	-10	 1	 100	 1	 7	 0.3;
	 245	 68.5825	 0	 61	-61	 1	 100	 1	 121	 16.165;
	 249	 110.4675	 0	 103	-103	 1	 100	 1	 206	 14.935;
	 254	 29.62	 3	 30	-24	 1	 100	 1	 47	 12.24;
	 257	 82.6825	 0	 75	-75	 1	 100	 1	 149	 16.365;
	 258	 154.835	 0	 137	-137	 1	 100	 1	 274	 35.67;
	 259	 48.6	 0	 47	-47	 1	 100	 1	 93	 4.2;
	 263	 166.5	 0	 142	-142	 1	 100	 1	 283	 50;
	 267	 6.7	 0	 10	-10	 1	 100	 1	 12	 1.4;
	 268	 13	 0	 11	-11	 1	 100	 1	 21	 5;
	 271	 35.8325	 0	 32	-32	 1	 100	 1	 64	 7.665;
	 272	 53.5	 0	 49	-49	 1	 100	 1	 97	 10;
	 276	 19.0175	 0	 18	-18	 1	 100	 1	 35	 3.035;
	 278	 53.2575	 0	 50	-50	 1	 100	 1	 100	 6.515;
	 281	 40.13	 0	 40	-40	 1	 100	 1	 79	 1.26;
	 283	-94.975	 0	 151.2	-151.2	 1	 100	 1	 0	-189.95;
	 284	 118	 3.5	 100	-93	 1	 100	 1	 186	 50;
	 285	 46.8325	 0	 39	-39	 1	 100	 1	 77	 16.665;
	 293	 42.7075	 0	 34	-34	 1	 100	 1	 67	 18.415;
	 296	 342	 0	 317	-317	 1	 100	 1	 634	 50;
	 297	 219	 0	 194	-194	 1	 100	 1	 388	 50;
	 298	 21.7	 0	 20	-20	 1	 100	 1	 35	 8.4;
	 302	 143.5	 0	 119	-119	 1	 100	 1	 237	 50;
	 305	 25.1675	 0	 20	-20	 1	 100	 1	 40	 10.335;
	 310	 186	 14.5	 190	-161	 1	 100	 1	 322	 50;
	 314	 26.8675	 0	 26	-26	 1	 100	 1	 52	 1.735;
	 316	 5.0725	 0	 10	-10	 1	 100	 1	 10	 0.145;
	 317	 234.5	 0	 210	-210	 1	 100	 1	 419	 50;
	 319	 30.7925	 0	 28	-28	 1	 100	 1	 55	 6.585;
	 320	 41.4575	 0	 40	-40	 1	 100	 1	 80	 2.915;
	 326	 74.4	 0	 70	-70	 1	 100	 1	 139	 9.8;
	 332	 17.1225	-2.5	 15	-20	 1	 100	 1	 29	 5.245;
	 333	 85.2175	 0	 80	-80	 1	 100	 1	 160	 10.435;
	 340	 43.8325	 0	 36	-36	 1	 100	 1	 71	 16.665;
	 343	 121.1975	 0	 114	-114	 1	 100	 1	 228	 14.395;
	 349	 36.8325	 0	 34	-34	 1	 100	 1	 68	 5.665;
	 350	 89.855	 0	 81	-81	 1	 100	 1	 162	 17.71;
	 354	 35.1675	 0	 31	-31	 1	 100	 1	 62	 8.335;
	 360	 303	 0	 253	-253	 1	 100	 1	 506	 100;
	 364	 15.0325	 0	 15	-15	 1	 100	 1	 29	 1.065;
	 365	 9	 0	 10	-10	 1	 100	 1	 15	 3;
	 368	 20.5	 0	 20	-20	 1	 100	 1	 39	 2;
	 369	 22.5175	 0	 20	-20	 1	 100	 1	 39	 6.035;
	 371	 5.64	 0	 10	-10	 1	 100	 1	 10	 1.28;
	 373	 133	 16	 140	-108	 1	 100	 1	 216	 50;
	 374	 70.5525	 0	 68	-68	 1	 100	 1	 135	 6.105;
	 377	 188.5	 0	 164	-164	 1	 100	 1	 327	 50;
	 379	 80.8	 0	 71	-71	 1	 100	 1	 142	 19.6;
	 383	 43.35	 7	 50	-36	 1	 100	 1	 72	 14.7;
	 386	 3.0125	 0	 10	-10	 1	 100	 1	 6	 0.025;
	 391	 9.3325	 0	 10	-10	 1	 100	 1	 17	 1.665;
	 392	-95.915	 0	 26.4	-26.4	 1	 100	 1	 0	-191.83;
	 394	 137.8325	 0	 130	-130	 1	 100	 1	 259	 16.665;
	 395	 13.8325	 0	 13	-13	 1	 100	 1	 26	 1.665;
	 396	 283.5	 0	 234	-234	 1	 100	 1	 467	 100;
	 397	 173.5	 0	 149	-149	 1	 100	 1	 297	 50;
	 398	 20.55	 0	 19	-19	 1	 100	 1	 37	 4.1;
	 399	 21.5875	 0	 21	-21	 1	 100	 1	 41	 2.175;
	 401	 10.4	 0	 10	-10	 1	 100	 1	 18	 2.8;
	 402	 257	 0	 232	-232	 1	 100	 1	 464	 50;
	 404	 40.1325	 0	 34	-34	 1	 100	 1	 68	 12.265;
	 408	 132.8325	 0	 125	-125	 1	 100	 1	 249	 16.665;
	 410	 19.36	 2	 20	-16	 1	 100	 1	 32	 6.72;
	 411	 52.4325	 0	 44	-44	 1	 100	 1	 88	 16.865;
	 414	 43.9	 0.5	 40	-39	 1	 100	 1	 78	 9.8;
	 419	 4.9175	 0	 10	-10	 1	 100	 1	 9	 0.835;
	 421	 10.6075	 0	 10	-10	 1	 100	 1	 20	 1.215;
	 423	 277.5	 0	 253	-253	 1	 100	 1	 505	 50;
	 424	 81.6675	 0	 68	-68	 1	 100	 1	 135	 28.335;
	 428	 4.165	 0	 10	-10	 1	 100	 1	 8	 0.33;
	 429	 68.75	 0	 65	-65	 1	 100	 1	 130	 7.5;
	 431	 26.7275	 0	 25	-25	 1	 100	 1	 50	 3.455;
	 432	 73.7175	 0	 69	-69	 1	 100	 1	 137	 10.435;
	 433	 74.5	 0	 67	-67	 1	 100	 1	 134	 15;
	 435	 6.745	 0	 10	-10	 1	 100	 1	 13	 0.49;
	 438	 156.8325	 0	 149	-149	 1	 100	 1	 297	 16.665;
	 439	 85.9175	 0	 76	-76	 1	 100	 1	 151	 20.835;
	 440	 20	 0	 18	-18	 1	 100	 1	 35	 5;
	 446	 19.6675	 2	 20	-16	 1	 100	 1	 32	 7.335;
	 449	 36.5	 0	 33	-33	 1	 100	 1	 66	 7;
	 450	 58.5175	 0	 52	-52	 1	 100	 1	 104	 13.035;
	 455	 21.6675	 0	 21	-21	 1	 100	 1	 41	 2.335;
	 457	 7.49	 0	 10	-10	 1	 100	 1	 14	 0.98;
	 461	 26.75	 0	 25	-25	 1	 100	 1	 50	 3.5;
	 463	 14.0875	 0	 13	-13	 1	 100	 1	 26	 2.175;
	 464	 69.39	 0	 64	-64	 1	 100	 1	 128	 10.78;
	 465	 95.625	 0	 80	-80	 1	 100	 1	 144	 47.25;
	 466	 20.6675	 0	 19	-19	 1	 100	 1	 38	 3.335;
	 467	 45.1	 0	 40	-40	 1	 100	 1	 80	 10.2;
	 468	 8.585	 0	 10	-10	 1	 100	 1	 17	 0.17;
	 471	 2.0425	 0	 10	-10	 1	 100	 1	 4	 0.085;
	 474	 263	 0	 238	-238	 1	 100	 1	 476	 50;
	 475	 32.3675	 0	 31	-31	 1	 100	 1	 62	 2.735;
	 477	 170.575	 0	 155	-155	 1	 100	 1	 310	 31.15;
	 478	 18.03	 0	 18	-18	 1	 100	 1	 35	 1.06;
	 479	 11.1875	 0	 11	-11	 1	 100	 1	 22	 0.375;
	 480	 147.5	 0	 123	-123	 1	 100	 1	 245	 50;
	 483	 28.5625	 0	 28	-28	 1	 100	 1	 55	 2.125;
	 485	 74.9	 0	 70	-70	 1	 100	 1	 140	 9.8;
	 486	-85.69	 0	 127.2	-127.2	 1	 100	 1	 0	-171.38;
	 488	 16.0875	 0	 15	-15	 1	 100	 1	 30	 2.175;
...
];

mpc_regionR1.branch = [
%	fbus        tbus        r           x           b           rateA       rateB       rateC       ratio       angle       status      angmin      angmax      
	 110	 755	 4e-05	 0.0004	 0	 78577	 78577	 78577	 0	 0	 1	-30	 30;
	 110	 802	 0.0017	 0.01741	 0	 1806	 1806	 1806	 0	 0	 1	-30	 30;
	 110	 840	 0.00097	 0.0123	 0	 2561	 2561	 2561	 0	 0	 1	-30	 30;
	 110	 274	 0.00057	 0.00725	 0	 4344	 4344	 4344	 0	 0	 1	-30	 30;
	 659	 755	 0.00177	 0.01811	 0	 1736	 1736	 1736	 0	 0	 1	-30	 30;
	 659	 1011	 0.00049	 0.00505	 0	 6226	 6226	 6226	 0	 0	 1	-30	 30;
	 659	 951	 0.00199	 0.02534	 0	 1243	 1243	 1243	 0	 0	 1	-30	 30;
	 659	 999	 0.00024	 0.00242	 0	 12989	 12989	 12989	 0	 0	 1	-30	 30;
	 75	 615	 0.01379	 0.0443	 0	 681	 681	 681	 0	 0	 1	-30	 30;
	 75	 911	 0.00615	 0.04848	 0	 647	 647	 647	 0	 0	 1	-30	 30;
	 75	 1331	 0.02224	 0.07142	 0	 423	 423	 423	 0	 0	 1	-30	 30;
	 75	 796	 0.0084	 0.06621	 0	 474	 474	 474	 0	 0	 1	-30	 30;
	 2	 95	 7e-05	 0.00068	 0	 46208	 46208	 46208	 0	 0	 1	-30	 30;
	 2	 894	 0.00669	 0.05272	 0	 595	 595	 595	 0	 0	 1	-30	 30;
	 2	 1294	 0.003	 0.03068	 0	 1025	 1025	 1025	 0	 0	 1	-30	 30;
	 2	 1287	 0.01129	 0.05381	 0	 575	 575	 575	 0	 0	 1	-30	 30;
	 95	 233	 0.02312	 0.11021	 0	 281	 281	 281	 0	 0	 1	-30	 30;
	 95	 1294	 0.0044	 0.03467	 0	 904	 904	 904	 0	 0	 1	-30	 30;
	 233	 79	 0.00113	 0.00362	 0	 8330	 8330	 8330	 0	 0	 1	-30	 30;
	 233	 79	 0.00113	 0.00362	 0	 8330	 8330	 8330	 0	 0	 1	-30	 30;
	 233	 322	 0.00603	 0.02877	 0	 1075	 1075	 1075	 0	 0	 1	-30	 30;
	 1197	 894	 0.01127	 0.0691	 0	 452	 452	 452	 0	 0	 1	-30	 30;
	 1197	 17	 0.01447	 0.04647	 0	 650	 650	 650	 0	 0	 1	-30	 30;
	 1197	 615	 0.00858	 0.06762	 0	 464	 464	 464	 0	 0	 1	-30	 30;
	 1197	 1093	 0.00026	 0.00161	 0	 19369	 19369	 19369	 0	 0	 1	-30	 30;
	 894	 17	 0.0037	 0.02918	 0	 1074	 1074	 1074	 0	 0	 1	-30	 30;
	 894	 1213	 0.00847	 0.0404	 0	 766	 766	 766	 0	 0	 1	-30	 30;
	 894	 1353	 0.00026	 0.00161	 0	 19369	 19369	 19369	 0	 0	 1	-30	 30;
	 17	 1294	 0.00935	 0.03001	 0	 1005	 1005	 1005	 0	 0	 1	-30	 30;
	 17	 1294	 0.00553	 0.02634	 0	 1174	 1174	 1174	 0	 0	 1	-30	 30;
	 17	 541	 0.00318	 0.0251	 0	 1249	 1249	 1249	 0	 0	 1	-30	 30;
	 17	 322	 0.00689	 0.05429	 0	 578	 578	 578	 0	 0	 1	-30	 30;
	 1086	 292	 0.00617	 0.02941	 0	 1052	 1052	 1052	 0	 0	 1	-30	 30;
	 1086	 911	 0.00476	 0.0375	 0	 836	 836	 836	 0	 0	 1	-30	 30;
	 292	 1061	 0.0157	 0.07482	 0	 414	 414	 414	 0	 0	 1	-30	 30;
	 445	 1150	 0.02731	 0.08769	 0	 344	 344	 344	 0	 0	 1	-30	 30;
	 445	 919	 0.03423	 0.10993	 0	 275	 275	 275	 0	 0	 1	-30	 30;
	 615	 943	 0.00112	 0.01141	 0	 2756	 2756	 2756	 0	 0	 1	-30	 30;
	 615	 541	 0.00895	 0.07061	 0	 444	 444	 444	 0	 0	 1	-30	 30;
	 615	 1241	 0.01187	 0.05656	 0	 547	 547	 547	 0	 0	 1	-30	 30;
	 329	 919	 0.00922	 0.04395	 0	 704	 704	 704	 0	 0	 1	-30	 30;
	 329	 796	 0.00995	 0.07845	 0	 400	 400	 400	 0	 0	 1	-30	 30;
	 1061	 1331	 0.01548	 0.04972	 0	 607	 607	 607	 0	 0	 1	-30	 30;
	 1061	 1241	 0.00339	 0.01616	 0	 1914	 1914	 1914	 0	 0	 1	-30	 30;
	 175	 1213	 0.00851	 0.04056	 0	 763	 763	 763	 0	 0	 1	-30	 30;
	 943	 1093	 0.0099	 0.06074	 0	 514	 514	 514	 0	 0	 1	-30	 30;
	 919	 156	 0.01001	 0.07892	 0	 398	 398	 398	 0	 0	 1	-30	 30;
	 919	 796	 0.01647	 0.07854	 0	 394	 394	 394	 0	 0	 1	-30	 30;
	 1294	 156	 0.00392	 0.03091	 0	 1014	 1014	 1014	 0	 0	 1	-30	 30;
	 1287	 322	 0.00603	 0.02877	 0	 1075	 1075	 1075	 0	 0	 1	-30	 30;
	 916	 802	 0.00043	 0.00443	 0	 7097	 7097	 7097	 0	 0	 1	-30	 30;
	 951	 352	 6e-05	 0.0008	 0	 39374	 39374	 39374	 0	 0	 1	-30	 30;
	 951	 115	 0.00029	 0.00366	 0	 8604	 8604	 8604	 0	 0	 1	-30	 30;
	 951	 86	 0.00051	 0.00643	 0	 4898	 4898	 4898	 0	 0	 1	-30	 30;
	 951	 907	 0.00033	 0.00424	 0	 7428	 7428	 7428	 0	 0	 1	-30	 30;
	 802	 481	 0.00034	 0.00432	 0	 7290	 7290	 7290	 0	 0	 1	-30	 30;
	 802	 1358	 0.00013	 0.00145	 0	 21698	 21698	 21698	 0	 0	 1	-30	 30;
	 802	 115	 0.00018	 0.00233	 0	 13517	 13517	 13517	 0	 0	 1	-30	 30;
	 481	 1209	 0.00034	 0.00432	 0	 7290	 7290	 7290	 0	 0	 1	-30	 30;
	 481	 583	 0.00208	 0.02643	 0	 1192	 1192	 1192	 0	 0	 1	-30	 30;
	 481	 1103	 0.00209	 0.0266	 0	 1184	 1184	 1184	 0	 0	 1	-30	 30;
	 481	 274	 0.00057	 0.00725	 0	 4344	 4344	 4344	 0	 0	 1	-30	 30;
	 1184	 957	 0.00034	 0.00153	 0	 20154	 20154	 20154	 0	 0	 1	-30	 30;
	 1184	 957	 0.00034	 0.00153	 0	 20154	 20154	 20154	 0	 0	 1	-30	 30;
	 1358	 115	 8e-05	 0.00089	 0	 35349	 35349	 35349	 0	 0	 1	-30	 30;
	 1358	 1278	 6e-05	 0.00067	 0	 46958	 46958	 46958	 0	 0	 1	-30	 30;
	 897	 747	 0.00181	 0.01428	 0	 2195	 2195	 2195	 0	 0	 1	-30	 30;
	 897	 747	 0.00181	 0.01428	 0	 2195	 2195	 2195	 0	 0	 1	-30	 30;
	 897	 413	 0.00576	 0.03535	 0	 882	 882	 882	 0	 0	 1	-30	 30;
	 897	 1395	 0.00576	 0.03535	 0	 882	 882	 882	 0	 0	 1	-30	 30;
	 898	 686	 0.00526	 0.02505	 0	 1235	 1235	 1235	 0	 0	 1	-30	 30;
	 898	 686	 0.00526	 0.02505	 0	 1235	 1235	 1235	 0	 0	 1	-30	 30;
	 898	 1275	 0.00159	 0.01612	 0	 2343	 2343	 2343	 0	 0	 1	-30	 30;
	 898	 1275	 0.00159	 0.01612	 0	 2343	 2343	 2343	 0	 0	 1	-30	 30;
	 898	 378	 0.00121	 0.01227	 0	 3078	 3078	 3078	 0	 0	 1	-30	 30;
	 898	 378	 0.00121	 0.01227	 0	 3078	 3078	 3078	 0	 0	 1	-30	 30;
	 1040	 118	 0.00132	 0.0063	 0	 4908	 4908	 4908	 0	 0	 1	-30	 30;
	 664	 403	 0.0019	 0.00905	 0	 3416	 3416	 3416	 0	 0	 1	-30	 30;
	 664	 403	 0.0019	 0.00905	 0	 3416	 3416	 3416	 0	 0	 1	-30	 30;
	 664	 270	 0.00025	 0.00264	 0	 11912	 11912	 11912	 0	 0	 1	-30	 30;
	 664	 270	 0.0002	 0.00204	 0	 15411	 15411	 15411	 0	 0	 1	-30	 30;
	 664	 118	 0.00031	 0.00316	 0	 9949	 9949	 9949	 0	 0	 1	-30	 30;
	 664	 535	 0.00031	 0.00316	 0	 9949	 9949	 9949	 0	 0	 1	-30	 30;
	 747	 306	 0.00145	 0.01145	 0	 2737	 2737	 2737	 0	 0	 1	-30	 30;
	 747	 1386	 0.00141	 0.01116	 0	 2809	 2809	 2809	 0	 0	 1	-30	 30;
	 891	 1109	 0.00036	 0.00359	 0	 8755	 8755	 8755	 0	 0	 1	-30	 30;
	 891	 1109	 0.00036	 0.00359	 0	 8755	 8755	 8755	 0	 0	 1	-30	 30;
	 306	 1386	 0.00066	 0.00518	 0	 6050	 6050	 6050	 0	 0	 1	-30	 30;
	 1148	 826	 0.00049	 0.00496	 0	 6338	 6338	 6338	 0	 0	 1	-30	 30;
	 1148	 323	 0.00028	 0.00296	 0	 10624	 10624	 10624	 0	 0	 1	-30	 30;
	 1148	 965	 0.00028	 0.00304	 0	 10347	 10347	 10347	 0	 0	 1	-30	 30;
	 356	 686	 0.00654	 0.03119	 0	 992	 992	 992	 0	 0	 1	-30	 30;
	 356	 454	 0.00108	 0.00517	 0	 5981	 5981	 5981	 0	 0	 1	-30	 30;
	 356	 454	 0.00108	 0.00517	 0	 5981	 5981	 5981	 0	 0	 1	-30	 30;
	 826	 722	 0.00119	 0.00941	 0	 3331	 3331	 3331	 0	 0	 1	-30	 30;
	 826	 722	 0.00119	 0.00941	 0	 3331	 3331	 3331	 0	 0	 1	-30	 30;
	 413	 453	 0.0061	 0.03744	 0	 833	 833	 833	 0	 0	 1	-30	 30;
	 413	 453	 0.0061	 0.03744	 0	 833	 833	 833	 0	 0	 1	-30	 30;
	 413	 1395	 0.00052	 0.00321	 0	 9714	 9714	 9714	 0	 0	 1	-30	 30;
	 453	 1386	 0.00298	 0.02354	 0	 1332	 1332	 1332	 0	 0	 1	-30	 30;
	 453	 1386	 0.00298	 0.02354	 0	 1332	 1332	 1332	 0	 0	 1	-30	 30;
	 453	 1334	 0.00298	 0.02354	 0	 1332	 1332	 1332	 0	 0	 1	-30	 30;
	 453	 1334	 0.00298	 0.02354	 0	 1332	 1332	 1332	 0	 0	 1	-30	 30;
	 324	 1221	 0.00026	 0.00267	 0	 11775	 11775	 11775	 0	 0	 1	-30	 30;
	 324	 1314	 0.00021	 0.00224	 0	 14040	 14040	 14040	 0	 0	 1	-30	 30;
	 454	 944	 0.00173	 0.01365	 0	 2296	 2296	 2296	 0	 0	 1	-30	 30;
	 454	 944	 0.00173	 0.01365	 0	 2296	 2296	 2296	 0	 0	 1	-30	 30;
	 323	 722	 0.00037	 0.00401	 0	 7844	 7844	 7844	 0	 0	 1	-30	 30;
	 323	 722	 0.00037	 0.00401	 0	 7844	 7844	 7844	 0	 0	 1	-30	 30;
	 722	 1422	 0.00073	 0.00744	 0	 4226	 4226	 4226	 0	 0	 1	-30	 30;
	 722	 1422	 0.00073	 0.00744	 0	 4226	 4226	 4226	 0	 0	 1	-30	 30;
	 900	 957	 0.00031	 0.00329	 0	 9559	 9559	 9559	 0	 0	 1	-30	 30;
	 900	 957	 0.00025	 0.00254	 0	 12377	 12377	 12377	 0	 0	 1	-30	 30;
	 900	 896	 0.00031	 0.0031	 0	 10139	 10139	 10139	 0	 0	 1	-30	 30;
	 900	 896	 0.00031	 0.0031	 0	 10139	 10139	 10139	 0	 0	 1	-30	 30;
	 879	 763	 0.00034	 0.00108	 0	 27898	 27898	 27898	 0	 0	 1	-30	 30;
	 1419	 763	 0.00042	 0.00449	 0	 7005	 7005	 7005	 0	 0	 1	-30	 30;
	 1419	 1314	 0.00025	 0.00248	 0	 12673	 12673	 12673	 0	 0	 1	-30	 30;
	 712	 1079	 0.00119	 0.01202	 0	 2616	 2616	 2616	 0	 0	 1	-30	 30;
	 712	 1079	 0.00119	 0.01202	 0	 2616	 2616	 2616	 0	 0	 1	-30	 30;
	 712	 1109	 0.00034	 0.00341	 0	 9218	 9218	 9218	 0	 0	 1	-30	 30;
	 712	 1109	 0.00034	 0.00341	 0	 9218	 9218	 9218	 0	 0	 1	-30	 30;
	 682	 731	 0.00034	 0.00369	 0	 8525	 8525	 8525	 0	 0	 1	-30	 30;
	 1221	 1314	 0.00053	 0.00569	 0	 5528	 5528	 5528	 0	 0	 1	-30	 30;
	 1221	 535	 0.00336	 0.016	 0	 1933	 1933	 1933	 0	 0	 1	-30	 30;
	 1079	 309	 0.00827	 0.03943	 0	 785	 785	 785	 0	 0	 1	-30	 30;
	 1079	 309	 0.00827	 0.03943	 0	 785	 785	 785	 0	 0	 1	-30	 30;
	 1275	 1078	 0.00073	 0.00785	 0	 4813	 4813	 4813	 0	 0	 1	-30	 30;
	 1275	 378	 0.00117	 0.00926	 0	 4028	 4028	 4028	 0	 0	 1	-30	 30;
	 1078	 1313	 0.00037	 0.00401	 0	 7844	 7844	 7844	 0	 0	 1	-30	 30;
	 352	 1278	 0.00012	 0.00134	 0	 23479	 23479	 23479	 0	 0	 1	-30	 30;
	 1209	 250	 0.00023	 0.00298	 0	 10569	 10569	 10569	 0	 0	 1	-30	 30;
	 224	 523	 0.00087	 0.01433	 0	 2201	 2201	 2201	 0	 0	 1	-30	 30;
	 224	 523	 0.00088	 0.01455	 0	 2167	 2167	 2167	 0	 0	 1	-30	 30;
	 224	 1339	 0.00133	 0.01364	 0	 2305	 2305	 2305	 0	 0	 1	-30	 30;
	 224	 650	 0.00064	 0.00644	 0	 4881	 4881	 4881	 0	 0	 1	-30	 30;
	 224	 1103	 0.00025	 0.00324	 0	 9721	 9721	 9721	 0	 0	 1	-30	 30;
	 224	 1345	 0.00276	 0.02823	 0	 1114	 1114	 1114	 0	 0	 1	-30	 30;
	 224	 240	 0.00266	 0.02691	 0	 1169	 1169	 1169	 0	 0	 1	-30	 30;
	 224	 966	 0.00196	 0.01981	 0	 1587	 1587	 1587	 0	 0	 1	-30	 30;
	 224	 727	 0.0023	 0.03797	 0	 831	 831	 831	 0	 0	 1	-30	 30;
	 523	 250	 0.00027	 0.00344	 0	 9155	 9155	 9155	 0	 0	 1	-30	 30;
	 523	 86	 0.00032	 0.00526	 0	 5995	 5995	 5995	 0	 0	 1	-30	 30;
	 523	 650	 0.001	 0.0101	 0	 3113	 3113	 3113	 0	 0	 1	-30	 30;
	 523	 644	 0.00017	 0.00279	 0	 11301	 11301	 11301	 0	 0	 1	-30	 30;
	 1339	 583	 0.00097	 0.0123	 0	 2561	 2561	 2561	 0	 0	 1	-30	 30;
	 1339	 651	 0.00228	 0.02898	 0	 1087	 1087	 1087	 0	 0	 1	-30	 30;
	 1339	 155	 0.00269	 0.03425	 0	 920	 920	 920	 0	 0	 1	-30	 30;
	 1339	 1097	 0.00096	 0.00982	 0	 3202	 3202	 3202	 0	 0	 1	-30	 30;
	 250	 1103	 0.00105	 0.01739	 0	 1814	 1814	 1814	 0	 0	 1	-30	 30;
	 250	 907	 0.00028	 0.00351	 0	 8971	 8971	 8971	 0	 0	 1	-30	 30;
	 86	 644	 0.00017	 0.00279	 0	 11301	 11301	 11301	 0	 0	 1	-30	 30;
	 473	 172	 0.00278	 0.01325	 0	 2334	 2334	 2334	 0	 0	 1	-30	 30;
	 473	 601	 0.04068	 0.19392	 0	 160	 160	 160	 0	 0	 1	-30	 30;
	 172	 964	 0.01464	 0.04701	 0	 642	 642	 642	 0	 0	 1	-30	 30;
	 172	 355	 0.01526	 0.07272	 0	 426	 426	 426	 0	 0	 1	-30	 30;
	 172	 878	 0.02017	 0.09615	 0	 322	 322	 322	 0	 0	 1	-30	 30;
	 172	 1005	 0.01254	 0.05979	 0	 518	 518	 518	 0	 0	 1	-30	 30;
	 918	 1273	 0.0046	 0.03624	 0	 865	 865	 865	 0	 0	 1	-30	 30;
	 918	 273	 0.01993	 0.064	 0	 472	 472	 472	 0	 0	 1	-30	 30;
	 65	 166	 0.00974	 0.03128	 0	 965	 965	 965	 0	 0	 1	-30	 30;
	 65	 232	 0.01464	 0.04701	 0	 642	 642	 642	 0	 0	 1	-30	 30;
	 65	 601	 0.04605	 0.14789	 0	 204	 204	 204	 0	 0	 1	-30	 30;
	 166	 979	 0.00287	 0.00922	 0	 3272	 3272	 3272	 0	 0	 1	-30	 30;
	 275	 536	 0.00308	 0.0315	 0	 999	 999	 999	 0	 0	 1	-30	 30;
	 275	 636	 0.00298	 0.02354	 0	 1332	 1332	 1332	 0	 0	 1	-30	 30;
	 366	 244	 0.0033	 0.02605	 0	 1203	 1203	 1203	 0	 0	 1	-30	 30;
	 366	 628	 0.00239	 0.02444	 0	 1287	 1287	 1287	 0	 0	 1	-30	 30;
	 366	 1219	 0.0003	 0.00312	 0	 10078	 10078	 10078	 0	 0	 1	-30	 30;
	 366	 565	 0.00318	 0.0251	 0	 1249	 1249	 1249	 0	 0	 1	-30	 30;
	 123	 563	 0.00043	 0.00434	 0	 7243	 7243	 7243	 0	 0	 1	-30	 30;
	 123	 137	 0.00259	 0.0204	 0	 1537	 1537	 1537	 0	 0	 1	-30	 30;
	 244	 1206	 0.00305	 0.01454	 0	 2127	 2127	 2127	 0	 0	 1	-30	 30;
	 244	 1206	 0.00305	 0.01454	 0	 2127	 2127	 2127	 0	 0	 1	-30	 30;
	 244	 636	 0.00119	 0.00941	 0	 3331	 3331	 3331	 0	 0	 1	-30	 30;
	 964	 1273	 0.02353	 0.07557	 0	 400	 400	 400	 0	 0	 1	-30	 30;
	 733	 1412	 0.00306	 0.02416	 0	 1298	 1298	 1298	 0	 0	 1	-30	 30;
	 733	 106	 0.00398	 0.03138	 0	 999	 999	 999	 0	 0	 1	-30	 30;
	 176	 1273	 0.01471	 0.07013	 0	 441	 441	 441	 0	 0	 1	-30	 30;
	 37	 758	 0.00325	 0.03326	 0	 946	 946	 946	 0	 0	 1	-30	 30;
	 37	 697	 0.0006	 0.00607	 0	 5179	 5179	 5179	 0	 0	 1	-30	 30;
	 37	 628	 0.00146	 0.01493	 0	 2106	 2106	 2106	 0	 0	 1	-30	 30;
	 37	 808	 0.00061	 0.0062	 0	 5071	 5071	 5071	 0	 0	 1	-30	 30;
	 37	 53	 0.00075	 0.00356	 0	 8683	 8683	 8683	 0	 0	 1	-30	 30;
	 875	 716	 0.00921	 0.0305	 0	 992	 992	 992	 0	 0	 1	-30	 30;
	 232	 1273	 0.01233	 0.0396	 0	 762	 762	 762	 0	 0	 1	-30	 30;
	 1323	 500	 0.0117	 0.05575	 0	 555	 555	 555	 0	 0	 1	-30	 30;
	 1323	 500	 0.0117	 0.05575	 0	 555	 555	 555	 0	 0	 1	-30	 30;
	 1323	 169	 0.00169	 0.00808	 0	 3827	 3827	 3827	 0	 0	 1	-30	 30;
	 1323	 389	 0.00235	 0.01851	 0	 1693	 1693	 1693	 0	 0	 1	-30	 30;
	 1323	 389	 0.00235	 0.01851	 0	 1693	 1693	 1693	 0	 0	 1	-30	 30;
	 1323	 106	 0.00119	 0.00941	 0	 3331	 3331	 3331	 0	 0	 1	-30	 30;
	 1323	 106	 0.00119	 0.00941	 0	 3331	 3331	 3331	 0	 0	 1	-30	 30;
	 1173	 527	 0.00046	 0.00497	 0	 6329	 6329	 6329	 0	 0	 1	-30	 30;
	 536	 758	 0.00024	 0.00188	 0	 16667	 16667	 16667	 0	 0	 1	-30	 30;
	 1308	 355	 0.01288	 0.06141	 0	 504	 504	 504	 0	 0	 1	-30	 30;
	 1308	 601	 0.02105	 0.10035	 0	 309	 309	 309	 0	 0	 1	-30	 30;
	 1003	 1219	 0.001	 0.00785	 0	 3992	 3992	 3992	 0	 0	 1	-30	 30;
	 1003	 565	 0.008	 0.06307	 0	 497	 497	 497	 0	 0	 1	-30	 30;
	 158	 46	 0.00046	 0.00497	 0	 6329	 6329	 6329	 0	 0	 1	-30	 30;
...
];

mpc_regionR1.gencost = [
%	2           startup     shutdown    n           c(n-1)...c0 
	 2	 0	 0	 3	 0	 25.015714	 0;
	 2	 0	 0	 3	 0	 32.120316	 0;
	 2	 0	 0	 3	 0	 32.128379	 0;
	 2	 0	 0	 3	 0	 18.886235	 0;
	 2	 0	 0	 3	 0	 50.488486	 0;
	 2	 0	 0	 3	 0	 54.916011	 0;
	 2	 0	 0	 3	 0	 33.360233	 0;
	 2	 0	 0	 3	 0	 17.961633	 0;
	 2	 0	 0	 3	 0	 47.879405	 0;
	 2	 0	 0	 3	 0	 25.955846	 0;
	 2	 0	 0	 3	 0	 27.815055	 0;
	 2	 0	 0	 3	 0	 28.395029	 0;
	 2	 0	 0	 3	 0	 13.52382	 0;
	 2	 0	 0	 3	 0	 42.895105	 0;
	 2	 0	 0	 3	 0	 30.531307	 0;
	 2	 0	 0	 3	 0	 26.132596	 0;
	 2	 0	 0	 3	 0	 27.469462	 0;
	 2	 0	 0	 3	 0	 43.233444	 0;
	 2	 0	 0	 3	 0	 25.961595	 0;
	 2	 0	 0	 3	 0	 25.781055	 0;
	 2	 0	 0	 3	 0	 25.802543	 0;
	 2	 0	 0	 3	 0	 17.037271	 0;
	 2	 0	 0	 3	 0	 32.702483	 0;
	 2	 0	 0	 3	 0	 33.82944	 0;
	 2	 0	 0	 3	 0	 33.232632	 0;
	 2	 0	 0	 3	 0	 19.15976	 0;
	 2	 0	 0	 3	 0	 27.364734	 0;
	 2	 0	 0	 3	 0	 15.262407	 0;
	 2	 0	 0	 3	 0	 30.7835	 0;
	 2	 0	 0	 3	 0	 32.298717	 0;
	 2	 0	 0	 3	 0	 25.677674	 0;
	 2	 0	 0	 3	 0	 31.444624	 0;
	 2	 0	 0	 3	 0	 57.543224	 0;
	 2	 0	 0	 3	 0	 14.761557	 0;
	 2	 0	 0	 3	 0	 26.311118	 0;
	 2	 0	 0	 3	 0	 35.284687	 0;
	 2	 0	 0	 3	 0	 22.401701	 0;
	 2	 0	 0	 3	 0	 26.787371	 0;
	 2	 0	 0	 3	 0	 42.765384	 0;
	 2	 0	 0	 3	 0	 18.781502	 0;
	 2	 0	 0	 3	 0	 31.258006	 0;
	 2	 0	 0	 3	 0	 33.685326	 0;
	 2	 0	 0	 3	 0	 35.304823	 0;
	 2	 0	 0	 3	 0	 27.818124	 0;
	 2	 0	 0	 3	 0	 9.360355	 0;
	 2	 0	 0	 3	 0	 29.808561	 0;
	 2	 0	 0	 3	 0	 40.30496	 0;
	 2	 0	 0	 3	 0	 22.293273	 0;
	 2	 0	 0	 3	 0	 41.302672	 0;
	 2	 0	 0	 3	 0	 30.287609	 0;
	 2	 0	 0	 3	 0	 32.366358	 0;
	 2	 0	 0	 3	 0	 39.191951	 0;
	 2	 0	 0	 3	 0	 110.853208	 0;
	 2	 0	 0	 3	 0	 10.809757	 0;
	 2	 0	 0	 3	 0	 46.522004	 0;
	 2	 0	 0	 3	 0	 29.582932	 0;
	 2	 0	 0	 3	 0	 39.06173	 0;
	 2	 0	 0	 3	 0	 24.024508	 0;
	 2	 0	 0	 3	 0	 31.053953	 0;
	 2	 0	 0	 3	 0	 12.992569	 0;
	 2	 0	 0	 3	 0	 24.598833	 0;
	 2	 0	 0	 3	 0	 23.733448	 0;
	 2	 0	 0	 3	 0	 45.500298	 0;
	 2	 0	 0	 3	 0	 30.626824	 0;
	 2	 0	 0	 3	 0	 30.107403	 0;
	 2	 0	 0	 3	 0	 33.621741	 0;
	 2	 0	 0	 3	 0	 12.065032	 0;
	 2	 0	 0	 3	 0	 50.824225	 0;
	 2	 0	 0	 3	 0	 22.103434	 0;
	 2	 0	 0	 3	 0	 119.109749	 0;
	 2	 0	 0	 3	 0	 32.200604	 0;
	 2	 0	 0	 3	 0	 19.431492	 0;
	 2	 0	 0	 3	 0	 22.396352	 0;
	 2	 0	 0	 3	 0	 46.647077	 0;
	 2	 0	 0	 3	 0	 52.480965	 0;
	 2	 0	 0	 3	 0	 49.318273	 0;
	 2	 0	 0	 3	 0	 27.53999	 0;
	 2	 0	 0	 3	 0	 52.113365	 0;
	 2	 0	 0	 3	 0	 38.515193	 0;
	 2	 0	 0	 3	 0	 28.996485	 0;
	 2	 0	 0	 3	 0	 33.986153	 0;
	 2	 0	 0	 3	 0	 108.599819	 0;
	 2	 0	 0	 3	 0	 36.631695	 0;
	 2	 0	 0	 3	 0	 35.223343	 0;
	 2	 0	 0	 3	 0	 30.556252	 0;
	 2	 0	 0	 3	 0	 32.510327	 0;
	 2	 0	 0	 3	 0	 23.733338	 0;
	 2	 0	 0	 3	 0	 21.967095	 0;
	 2	 0	 0	 3	 0	 50.922043	 0;
	 2	 0	 0	 3	 0	 50.687387	 0;
	 2	 0	 0	 3	 0	 33.235827	 0;
	 2	 0	 0	 3	 0	 61.47485	 0;
	 2	 0	 0	 3	 0	 17.11872	 0;
	 2	 0	 0	 3	 0	 20.036383	 0;
	 2	 0	 0	 3	 0	 25.117904	 0;
	 2	 0	 0	 3	 0	 13.111421	 0;
	 2	 0	 0	 3	 0	 39.840645	 0;
	 2	 0	 0	 3	 0	 22.736408	 0;
	 2	 0	 0	 3	 0	 51.431062	 0;
	 2	 0	 0	 3	 0	 0.971474	 0;
	 2	 0	 0	 3	 0	 33.419031	 0;
	 2	 0	 0	 3	 0	 23.040127	 0;
	 2	 0	 0	 3	 0	 53.740669	 0;
	 2	 0	 0	 3	 0	 29.51874	 0;
	 2	 0	 0	 3	 0	 10.119016	 0;
	 2	 0	 0	 3	 0	 28.225371	 0;
	 2	 0	 0	 3	 0	 18.099097	 0;
	 2	 0	 0	 3	 0	 38.270059	 0;
	 2	 0	 0	 3	 0	 26.04937	 0;
	 2	 0	 0	 3	 0	 42.422762	 0;
	 2	 0	 0	 3	 0	 16.739718	 0;
	 2	 0	 0	 3	 0	 14.03191	 0;
	 2	 0	 0	 3	 0	 42.866837	 0;
	 2	 0	 0	 3	 0	 44.734955	 0;
	 2	 0	 0	 3	 0	 45.78044	 0;
	 2	 0	 0	 3	 0	 19.479811	 0;
	 2	 0	 0	 3	 0	 22.415233	 0;
	 2	 0	 0	 3	 0	 34.23069	 0;
	 2	 0	 0	 3	 0	 36.32586	 0;
	 2	 0	 0	 3	 0	 21.85514	 0;
	 2	 0	 0	 3	 0	 23.753349	 0;
	 2	 0	 0	 3	 0	 17.107036	 0;
	 2	 0	 0	 3	 0	 49.854916	 0;
	 2	 0	 0	 3	 0	 37.15157	 0;
	 2	 0	 0	 3	 0	 23.653066	 0;
	 2	 0	 0	 3	 0	 35.951058	 0;
	 2	 0	 0	 3	 0	 12.387968	 0;
	 2	 0	 0	 3	 0	 56.800352	 0;
	 2	 0	 0	 3	 0	 40.837755	 0;
	 2	 0	 0	 3	 0	 19.461009	 0;
	 2	 0	 0	 3	 0	 38.99398	 0;
	 2	 0	 0	 3	 0	 38.655435	 0;
	 2	 0	 0	 3	 0	 34.573198	 0;
	 2	 0	 0	 3	 0	 37.384339	 0;
	 2	 0	 0	 3	 0	 23.102195	 0;
	 2	 0	 0	 3	 0	 36.146837	 0;
	 2	 0	 0	 3	 0	 22.129782	 0;
	 2	 0	 0	 3	 0	 23.8685	 0;
	 2	 0	 0	 3	 0	 30.587847	 0;
	 2	 0	 0	 3	 0	 39.76731	 0;
	 2	 0	 0	 3	 0	 22.401015	 0;
	 2	 0	 0	 3	 0	 27.194884	 0;
	 2	 0	 0	 3	 0	 28.765	 0;
	 2	 0	 0	 3	 0	 30.959517	 0;
	 2	 0	 0	 3	 0	 37.571575	 0;
	 2	 0	 0	 3	 0	 37.274254	 0;
	 2	 0	 0	 3	 0	 28.088735	 0;
	 2	 0	 0	 3	 0	 45.988923	 0;
	 2	 0	 0	 3	 0	 34.588976	 0;
	 2	 0	 0	 3	 0	 38.231216	 0;
	 2	 0	 0	 3	 0	 31.546384	 0;
	 2	 0	 0	 3	 0	 48.899099	 0;
	 2	 0	 0	 3	 0	 27.155192	 0;
	 2	 0	 0	 3	 0	 8.301786	 0;
	 2	 0	 0	 3	 0	 30.321304	 0;
	 2	 0	 0	 3	 0	 27.053165	 0;
	 2	 0	 0	 3	 0	 6.670545	 0;
	 2	 0	 0	 3	 0	 38.074066	 0;
	 2	 0	 0	 3	 0	 54.825042	 0;
	 2	 0	 0	 3	 0	 30.887323	 0;
	 2	 0	 0	 3	 0	 51.845871	 0;
	 2	 0	 0	 3	 0	 29.148839	 0;
	 2	 0	 0	 3	 0	 12.373525	 0;
	 2	 0	 0	 3	 0	 32.633556	 0;
	 2	 0	 0	 3	 0	 30.359111	 0;
	 2	 0	 0	 3	 0	 26.936444	 0;
	 2	 0	 0	 3	 0	 27.261777	 0;
	 2	 0	 0	 3	 0	 29.483181	 0;
	 2	 0	 0	 3	 0	 41.175087	 0;
	 2	 0	 0	 3	 0	 23.725259	 0;
	 2	 0	 0	 3	 0	 25.622656	 0;
	 2	 0	 0	 3	 0	 38.047582	 0;
	 2	 0	 0	 3	 0	 29.993716	 0;
	 2	 0	 0	 3	 0	 24.895549	 0;
	 2	 0	 0	 3	 0	 22.884337	 0;
	 2	 0	 0	 3	 0	 43.780652	 0;
	 2	 0	 0	 3	 0	 29.094115	 0;
	 2	 0	 0	 3	 0	 32.998903	 0;
	 2	 0	 0	 3	 0	 21.006608	 0;
	 2	 0	 0	 3	 0	 30.012712	 0;
	 2	 0	 0	 3	 0	 56.340413	 0;
	 2	 0	 0	 3	 0	 39.768885	 0;
	 2	 0	 0	 3	 0	 36.270563	 0;
	 2	 0	 0	 3	 0	 22.17556	 0;
	 2	 0	 0	 3	 0	 36.256747	 0;
	 2	 0	 0	 3	 0	 24.350241	 0;
	 2	 0	 0	 3	 0	 1.104365	 0;
	 2	 0	 0	 3	 0	 23.523042	 0;
	 2	 0	 0	 3	 0	 52.077436	 0;
	 2	 0	 0	 3	 0	 33.692949	 0;
	 2	 0	 0	 3	 0	 23.021362	 0;
	 2	 0	 0	 3	 0	 36.22206	 0;
	 2	 0	 0	 3	 0	 23.180004	 0;
	 2	 0	 0	 3	 0	 34.513997	 0;
	 2	 0	 0	 3	 0	 41.165457	 0;
	 2	 0	 0	 3	 0	 36.279319	 0;
	 2	 0	 0	 3	 0	 44.93907	 0;
	 2	 0	 0	 3	 0	 28.543089	 0;
	 2	 0	 0	 3	 0	 20.272993	 0;
	 2	 0	 0	 3	 0	 36.762813	 0;
...
];


% -------------------- mpc_regionR2 --------------------

mpc_regionR2.version = '2';
mpc_regionR2.baseMVA = 100.0000;
mpc_regionR2.bus = [
%	bus_i       type        Pd          Qd          Gs          Bs          area        Vm          Va          baseKV      zone        Vmax        Vmin        
	 1	 1	 21.42	 7.1	 0	 1.15	 0	 1	 0	 110	 19	 1.1	 0.9;
	 2	 2	 0	 0	 0	 0	 0	 1	 0	 20	 18	 1.1	 0.9;
	 3	 1	 14.75	 4.9	 0	 1.8	 0	 1	 0	 110	 19	 1.1	 0.9;
	 4	 1	-0	 0	 0.12	 15.34	 0	 1	 0	 220	 19	 1.1	 0.9;
	 5	 1	 10.05	 2.6	 0	 2	 0	 1	 0	 110	 18	 1.1	 0.9;
	 6	 1	 11.04	 3.7	 0	 0.81	 0	 1	 0	 110	 19	 1.1	 0.9;
	 7	 1	 10.93	 2.7	 0	 1.14	 0	 1	 0	 110	 18	 1.1	 0.9;
	 8	 1	 6.31	-0	 0	 0.67	 0	 1	 0	 110	 18	 1.1	 0.9;
	 9	 1	 0.24	-1.66	 0	 0.65	 0	 1	 0	 110	 18	 1.1	 0.9;
	 10	 1	-0	 0	 0	 1.34	 0	 1	 0	 110	 18	 1.1	 0.9;
	 11	 1	 5.03	 1.7	 0	 2.32	 0	 1	 0	 110	 19	 1.1	 0.9;
	 12	 1	 0	 0	 0	 0.83	 0	 1	 0	 110	 18	 1.1	 0.9;
	 13	 1	 1.09	 0.3	 0	 0.19	 0	 1	 0	 110	 19	 1.1	 0.9;
	 14	 1	 23.49	 5.1	 0	 0.5	 0	 1	 0	 110	 18	 1.1	 0.9;
	 15	 1	 19.13	 6.3	 0	 0.26	 0	 1	 0	 110	 19	 1.1	 0.9;
	 16	 1	 36.18	 12	 0	 0.65	 0	 1	 0	 110	 19	 1.1	 0.9;
	 17	 1	 4.15	 1.3	 0	 0.4	 0	 1	 0	 110	 18	 1.1	 0.9;
	 18	 1	 1.97	 0.7	 0	 0.3	 0	 1	 0	 110	 19	 1.1	 0.9;
	 19	 1	 2.5	 0	 0	 0.96	 0	 1	 0	 110	 18	 1.1	 0.9;
	 20	 1	 10.05	 3.3	 0	 1.2	 0	 1	 0	 110	 19	 1.1	 0.9;
	 21	 1	 0	 0	 0	 113.7	 0	 1	 0	 380	 18	 1.2	 0.8;
	 22	 2	 0	 0	 0	 0	 0	 1	 0	 20	 18	 1.1	 0.9;
	 23	 1	-15.04	-5.12	 0	 0.43	 0	 1	 0	 110	 18	 1.1	 0.9;
	 24	 1	 10.05	 6	 0.060012	 0.149988	 0	 1	 0	 110	 19	 1.1	 0.9;
	 25	 1	 0	 0	 0.181549	 14.690889	 0	 1	 0	 220	 18	 1.1	 0.9;
	 26	 1	 37.16	 12.3	 0	 0.23	 0	 1	 0	 110	 19	 1.1	 0.9;
	 27	 1	 2.73	 3.8	 0	 0.15	 0	 1	 0	 110	 18	 1.1	 0.9;
	 28	 1	 33.33	 10.9	 0.589029	 2.678252	 0	 1	 0	 220	 19	 1.1	 0.9;
	 29	 1	 50.27	 16.9	 0.03829	 0.29171	 0	 1	 0	 110	 19	 1.1	 0.9;
	 30	 1	 0	-0	 0	 0.72	 0	 1	 0	 110	 18	 1.1	 0.9;
	 31	 1	-0	-0	 0	 9.41	 0	 1	 0	 220	 18	 1.2	 0.8;
	 32	 1	 123.69	 30.2	 0.039525	 2.140475	 0	 1	 0	 110	 18	 1.1	 0.9;
	 33	 1	 9.07	 3	 0	 0.99	 0	 1	 0	 110	 19	 1.1	 0.9;
	 34	 1	 54.48	 144	 1.091586	 80.060431	 0	 1	 0	 380	 18	 1.2	 0.8;
	 35	 1	-14.85	-4.95	 0	 0.37	 0	 1	 0	 110	 18	 1.1	 0.9;
	 36	 1	 0	 0	 0	 25.85	 0	 1	 0	 380	 1	 1.2	 0.8;
	 37	 1	 32.78	 10.9	 0	 1.45	 0	 1	 0	 110	 19	 1.1	 0.9;
	 38	 2	 0	 0	 0	 0	 0	 1	 0	 20	 18	 1.1	 0.9;
	 39	 1	-0	 0	 0	 1.92	 0	 1	 0	 110	 18	 1.1	 0.9;
	 40	 1	 4.4	 0	 0	 0.51	 0	 1	 0	 110	 18	 1.1	 0.9;
	 41	 1	 10.07	 1.2	 0	 0.8	 0	 1	 0	 110	 19	 1.1	 0.9;
	 42	 1	-0	 0	 0	 0.36	 0	 1	 0	 110	 19	 1.1	 0.9;
	 43	 1	 3.49	 1.2	 0	 0.69	 0	 1	 0	 110	 19	 1.1	 0.9;
	 44	 1	-4.86	-2.15	 0	 0.31	 0	 1	 0	 110	 18	 1.1	 0.9;
	 45	 1	 11.8	 5.1	 0	 1.09	 0	 1	 0	 110	 18	 1.1	 0.9;
	 46	 1	-0	 0	 0.258771	 12.056323	 0	 1	 0	 220	 19	 1.1	 0.9;
	 47	 1	-19.66	-10.83	 0	 0.06	 0	 1	 0	 110	 18	 1.1	 0.9;
	 48	 1	-0	-0	 0.090774	 7.330444	 0	 1	 0	 220	 18	 1.2	 0.8;
	 49	 1	 4.16	 0.24	 0	 0.23	 0	 1	 0	 110	 18	 1.1	 0.9;
	 50	 1	 39.13	 12.5	 0	 0.26	 0	 1	 0	 110	 19	 1.1	 0.9;
	 51	 1	 0.1	-0	 0	 0.57	 0	 1	 0	 110	 18	 1.1	 0.9;
	 52	 1	 36.18	 11.6	 0	 0.22	 0	 1	 0	 110	 19	 1.1	 0.9;
	 53	 1	 2.4	 1.3	 0.019376	 1.050624	 0	 1	 0	 110	 18	 1.1	 0.9;
	 54	 1	 2.5	 0	 0	 0.64	 0	 1	 0	 110	 18	 1.1	 0.9;
	 55	 1	 1.97	 0.7	 0	 0.18	 0	 1	 0	 110	 19	 1.1	 0.9;
	 56	 1	 0	-0	 0	 0.88	 0	 1	 0	 110	 18	 1.1	 0.9;
	 57	 1	 16.62	 5.1	 0	 1.34	 0	 1	 0	 110	 18	 1.1	 0.9;
	 58	 1	 26.56	 7.6	 0	 1.18	 0	 1	 0	 110	 18	 1.1	 0.9;
	 59	 1	 9.84	 6.8	 0	 0.44	 0	 1	 0	 110	 18	 1.1	 0.9;
	 60	 1	 18.14	 3.1	 0	 1.14	 0	 1	 0	 110	 18	 1.1	 0.9;
	 61	 1	 6.34	 1.1	 0	 4.02	 0	 1	 0	 110	 19	 1.1	 0.9;
	 62	 1	 0	-0	 0	 1.05	 0	 1	 0	 110	 18	 1.1	 0.9;
	 63	 2	 0	 0	 0	 0	 0	 1	 0	 20	 18	 1.1	 0.9;
	 64	 2	 0	 0	 0	 0	 0	 1	 0	 20	 18	 1.1	 0.9;
	 65	 1	-0	 0	 0	 1.49	 0	 1	 0	 110	 18	 1.1	 0.9;
	 66	 1	 25.58	 8.5	 0	 0.33	 0	 1	 0	 110	 19	 1.1	 0.9;
	 67	 1	 26.11	 7.75	 0	 1.91	 0	 1	 0	 110	 18	 1.1	 0.9;
	 68	 2	 0	 0	 0	 0	 0	 1	 0	 20	 18	 1.1	 0.9;
	 69	 1	 16.07	 5.3	 0	 0.76	 0	 1	 0	 110	 19	 1.1	 0.9;
	 70	 1	 109.72	 37	 0	 14.95	 0	 1	 0	 380	 18	 1.2	 0.8;
	 71	 1	 18.04	 3.8	 0	 0.98	 0	 1	 0	 110	 18	 1.1	 0.9;
	 72	 1	 2.18	 0.7	 0	 0.02	 0	 1	 0	 110	 19	 1.1	 0.9;
	 73	 1	-0	 0	 0	 8.48	 0	 1	 0	 220	 18	 1.2	 0.8;
	 74	 1	-0	-0	 0	 12.14	 0	 1	 0	 220	 19	 1.1	 0.9;
	 75	 1	 47.55	-1.41	 0	 0.76	 0	 1	 0	 110	 18	 1.1	 0.9;
	 76	 1	 22.07	 7.3	 0	 0.59	 0	 1	 0	 110	 19	 1.1	 0.9;
	 77	 1	 29.62	 8.9	 0	 1.37	 0	 1	 0	 110	 19	 1.1	 0.9;
	 78	 1	 90.49	 26.8	 0	 0.65	 0	 1	 0	 110	 19	 1.1	 0.9;
	 79	 1	 118.56	 38.7	 0	 0	 0	 1	 0	 110	 18	 1.1	 0.9;
	 80	 1	 0	-0	 0	 0.17	 0	 1	 0	 110	 18	 1.1	 0.9;
	 81	 2	 0	 0	 0	 0	 0	 1	 0	 20	 2	 1.1	 0.9;
	 82	 1	 29.51	 9.8	 0	 1.01	 0	 1	 0	 110	 19	 1.1	 0.9;
	 83	 1	 54.49	 23.81	 0	 0.17	 0	 1	 0	 110	 18	 1.1	 0.9;
	 84	 1	-0	 0	 0.370251	 146.807945	 0	 1	 0	 380	 18	 1.2	 0.8;
	 85	 1	-0.92	-4.99	 0	 1.86	 0	 1	 0	 110	 18	 1.1	 0.9;
	 86	 1	 16.83	 5.8	 0	 0.57	 0	 1	 0	 110	 18	 1.1	 0.9;
	 87	 1	 43.71	 16	 0	 0.52	 0	 1	 0	 110	 18	 1.1	 0.9;
	 88	 1	 8.64	 2.5	 0.058378	 1.241622	 0	 1	 0	 110	 19	 1.1	 0.9;
	 89	 2	 0	 0	 0	 0	 0	 1	 0	 20	 18	 1.1	 0.9;
	 90	 1	 28.74	 9.5	 0	 1.85	 0	 1	 0	 110	 19	 1.1	 0.9;
	 91	 1	 3.73	 2.68	 0	 1.46	 0	 1	 0	 110	 18	 1.1	 0.9;
	 92	 1	 0	-0	 0	 7.2	 0	 1	 0	 220	 19	 1.1	 0.9;
	 93	 1	 33.66	 10.8	 0	 2.59	 0	 1	 0	 110	 18	 1.1	 0.9;
	 94	 1	 6.67	 2.2	 0	 0.88	 0	 1	 0	 110	 19	 1.1	 0.9;
	 95	 1	 13.88	 0.8	 0	 0.51	 0	 1	 0	 110	 18	 1.1	 0.9;
	 96	 2	 0	 0	 0	 0	 0	 1	 0	 20	 18	 1.1	 0.9;
	 97	 1	-0	 0	 0.058557	-0.008557	 0	 1	 0	 110	 18	 1.1	 0.9;
	 98	 1	 32.35	 10.8	 0	 2.39	 0	 1	 0	 110	 19	 1.1	 0.9;
	 99	 1	 4.5	-5.6	 0	 0.09	 0	 1	 0	 110	 18	 1.1	 0.9;
	 100	 1	-0.54	-0.99	 0	 1.13	 0	 1	 0	 220	 18	 1.2	 0.8;
	 101	 1	 34.94	-32.3	 0.418254	 37.168883	 0	 1	 0	 380	 19	 1.2	 0.8;
	 102	 1	 8.85	 2	 0	 1.95	 0	 1	 0	 110	 18	 1.1	 0.9;
	 103	 2	 0	 0	 0	 0	 0	 1	 0	 20	 2	 1.1	 0.9;
	 104	 2	 0	 0	 0	 0	 0	 1	 0	 20	 2	 1.1	 0.9;
	 105	 1	 2.73	 1.3	 0	 0.07	 0	 1	 0	 110	 18	 1.1	 0.9;
	 106	 2	 0	 0	 0	 0	 0	 1	 0	 20	 2	 1.1	 0.9;
	 107	 1	 2.73	 1.3	 0	 1.55	 0	 1	 0	 110	 18	 1.1	 0.9;
	 108	 1	 2.07	 0.6	 0	 0.38	 0	 1	 0	 110	 18	 1.1	 0.9;
	 109	 1	 40.11	 8.9	 0	 0.63	 0	 1	 0	 110	 18	 1.1	 0.9;
	 110	 1	 0	 0	 0	 1.5	 0	 1	 0	 110	 18	 1.1	 0.9;
	 111	 1	-14.87	-4.17	 0	 0.58	 0	 1	 0	 110	 18	 1.1	 0.9;
	 112	 1	 49.18	 19.2	 0	 0.21	 0	 1	 0	 110	 18	 1.1	 0.9;
	 113	 1	 19.67	 6.4	 0	 0.79	 0	 1	 0	 110	 18	 1.1	 0.9;
	 114	 1	 27.59	 5.71	 0	 0.67	 0	 1	 0	 110	 19	 1.1	 0.9;
	 115	 1	-0	-0	 0.135375	 32.572175	 0	 1	 0	 380	 18	 1.2	 0.8;
	 116	 1	-0	-0	 0	 0.47	 0	 1	 0	 110	 18	 1.1	 0.9;
	 117	 2	 0	 0	 0	 0	 0	 1	 0	 20	 18	 1.1	 0.9;
	 118	 1	 23.71	 4.8	 0	 1.26	 0	 1	 0	 110	 18	 1.1	 0.9;
	 119	 1	 1.42	 0.6	 0	 1.23	 0	 1	 0	 110	 18	 1.1	 0.9;
	 120	 1	 15.09	 5	 0	 0.11	 0	 1	 0	 110	 19	 1.1	 0.9;
	 121	 1	 15.09	 5	 0	 0.63	 0	 1	 0	 110	 19	 1.1	 0.9;
	 122	 1	 19.02	 11.9	 0.293436	 14.435105	 0	 1	 0	 220	 19	 1.1	 0.9;
	 123	 1	 4.26	 1.4	 0	 0.78	 0	 1	 0	 110	 19	 1.1	 0.9;
	 124	 1	 9.73	 3.8	 0	 0.38	 0	 1	 0	 110	 18	 1.1	 0.9;
	 125	 1	 26.78	 7.9	 0	 0.63	 0	 1	 0	 110	 19	 1.1	 0.9;
	 126	 1	-0	-0	 0.126343	 6.455031	 0	 1	 0	 220	 19	 1.1	 0.9;
	 127	 1	 16.62	 7.6	 0	 1.56	 0	 1	 0	 110	 18	 1.1	 0.9;
	 128	 1	 8.74	 4.1	 0	 2.25	 0	 1	 0	 110	 18	 1.1	 0.9;
	 129	 1	 2.73	 1.3	 0	 2.33	 0	 1	 0	 110	 18	 1.1	 0.9;
	 130	 1	 28.42	 9.8	 0	 0.82	 0	 1	 0	 110	 18	 1.1	 0.9;
	 131	 1	-0	-0	 0	 34.26	 0	 1	 0	 380	 1	 1.1	 0.9;
	 132	 1	 33.11	 11	 0	 1.43	 0	 1	 0	 110	 19	 1.1	 0.9;
	 133	 1	 8.09	 1.8	 0	 0.3	 0	 1	 0	 110	 19	 1.1	 0.9;
	 134	 1	 5.25	 2.2	 0	 0.62	 0	 1	 0	 110	 18	 1.1	 0.9;
	 135	 1	 1.42	 0.4	 0	 0.64	 0	 1	 0	 110	 18	 1.1	 0.9;
	 136	 1	-0	-0	 0.099501	 68.573595	 0	 1	 0	 380	 18	 1.2	 0.8;
	 137	 2	 0	 0	 0	 0	 0	 1	 0	 20	 18	 1.1	 0.9;
	 138	 1	-0	-0	 0.009683	 0.180317	 0	 1	 0	 110	 18	 1.1	 0.9;
	 139	 2	 0	 0	 0	 0	 0	 1	 0	 20	 18	 1.1	 0.9;
	 140	 1	-0	-0	 0.181549	 5.810889	 0	 1	 0	 220	 18	 1.1	 0.9;
	 141	 1	 23.06	 7.7	 0	 1.48	 0	 1	 0	 110	 19	 1.1	 0.9;
	 142	 1	 19.78	 5.6	 0.019734	 2.520266	 0	 1	 0	 110	 18	 1.1	 0.9;
	 143	 1	 0	 0	 0	 0.32	 0	 1	 0	 110	 18	 1.1	 0.9;
	 144	 1	 15.09	 5	 0	 0.45	 0	 1	 0	 110	 19	 1.1	 0.9;
	 145	 1	 3.7	-0	 0	 0.64	 0	 1	 0	 110	 18	 1.1	 0.9;
	 146	 1	 2.73	 0.6	 0	 0.61	 0	 1	 0	 110	 18	 1.1	 0.9;
	 147	 1	 2.07	 0.8	 0	 0.65	 0	 1	 0	 110	 18	 1.1	 0.9;
	 148	 1	 27.8	-2.03	 0	 0.5	 0	 1	 0	 110	 18	 1.1	 0.9;
	 149	 1	 1.6	-0	 0	 0.44	 0	 1	 0	 110	 18	 1.1	 0.9;
	 150	 1	 23.93	 7.2	 0	 3.14	 0	 1	 0	 110	 19	 1.1	 0.9;
	 151	 1	 46.02	 14.2	 0	 1.71	 0	 1	 0	 110	 19	 1.1	 0.9;
	 152	 1	-24.85	-3.56	 0	 1.31	 0	 1	 0	 110	 18	 1.1	 0.9;
	 153	 1	 0	 0	 0	 43.02	 0	 1	 0	 380	 1	 1.2	 0.8;
	 154	 1	 50.49	 21	 0.116588	 2.262843	 0	 1	 0	 110	 19	 1.1	 0.9;
	 155	 1	 0	 0	 0	 0.32	 0	 1	 0	 110	 18	 1.1	 0.9;
	 156	 1	 1.97	 0.6	 0	 0.52	 0	 1	 0	 110	 19	 1.1	 0.9;
	 157	 1	 0	-0	 0.086633	 0.514111	 0	 1	 0	 220	 18	 1.2	 0.8;
	 158	 1	 1.53	 0.6	 0	 0.41	 0	 1	 0	 110	 18	 1.1	 0.9;
	 159	 2	 0	 0	 0	 0	 0	 1	 0	 20	 18	 1.1	 0.9;
	 160	 1	 0	 0	 0.210571	 8.306088	 0	 1	 0	 220	 19	 1.1	 0.9;
	 161	 1	 26.34	 12.7	 0	 0.1	 0	 1	 0	 110	 18	 1.1	 0.9;
	 162	 1	 87.22	 29	 0	 1.42	 0	 1	 0	 110	 19	 1.1	 0.9;
	 163	 1	-0	 0	 0	 0.1	 0	 1	 0	 110	 19	 1.1	 0.9;
	 164	 1	 92.7	-11.6	 0.116434	 0.152972	 0	 1	 0	 110	 18	 1.1	 0.9;
	 165	 2	 0	 0	 0	 0	 0	 1	 0	 20	 18	 1.1	 0.9;
	 166	 1	 15.96	 5.6	 0	 0.25	 0	 1	 0	 110	 18	 1.1	 0.9;
	 167	 1	 14.42	 9.2	 0	 0.69	 0	 1	 0	 110	 18	 1.1	 0.9;
	 168	 1	-0	-0	 0.181549	 8.450889	 0	 1	 0	 220	 18	 1.1	 0.9;
	 169	 1	 27.54	 10.6	 0	 1.44	 0	 1	 0	 110	 18	 1.1	 0.9;
	 170	 1	-0	-0	 0.052811	 29.652975	 0	 1	 0	 380	 19	 1.1	 0.9;
	 171	 1	-0.59	-2.55	 0.04975	 111.131798	 0	 1	 0	 380	 18	 1.2	 0.8;
	 172	 1	 8.09	 2.7	 0	 1.39	 0	 1	 0	 110	 19	 1.1	 0.9;
	 173	 1	-4.57	-1.31	 0	 1.12	 0	 1	 0	 110	 18	 1.1	 0.9;
	 174	 1	-0	 0	 0	 0.4	 0	 1	 0	 110	 18	 1.1	 0.9;
	 175	 1	 0	-0	 0.256113	 11.74089	 0	 1	 0	 220	 19	 1.1	 0.9;
	 176	 1	 1.97	 0.7	 0	 0.17	 0	 1	 0	 110	 19	 1.1	 0.9;
	 177	 1	 163.65	 53.2	 0	 1.07	 0	 1	 0	 110	 18	 1.1	 0.9;
	 178	 1	 34.65	 6.3	 0	 0.5	 0	 1	 0	 110	 18	 1.1	 0.9;
	 179	 1	 20.76	 9.1	 0	 0.52	 0	 1	 0	 110	 18	 1.1	 0.9;
	 180	 1	 0	-0.2	 0	 0.15	 0	 1	 0	 110	 18	 1.1	 0.9;
	 181	 1	 29.07	 9.7	 0	 0.37	 0	 1	 0	 110	 19	 1.1	 0.9;
	 182	 2	 0	 0	 0	 0	 0	 1	 0	 20	 18	 1.1	 0.9;
	 183	 1	 20.76	 8	 0	 2.05	 0	 1	 0	 110	 18	 1.1	 0.9;
	 184	 1	-19.83	-6.01	 0	 0.38	 0	 1	 0	 110	 18	 1.1	 0.9;
	 185	 1	 9.29	 6.4	 0	 0.39	 0	 1	 0	 110	 18	 1.1	 0.9;
	 186	 1	 19.35	 3.8	 0	 0.94	 0	 1	 0	 110	 18	 1.1	 0.9;
	 187	 1	-0	 0	 0	 2.79	 0	 1	 0	 220	 19	 1.1	 0.9;
	 188	 1	 15.09	 3.6	 0	 0.72	 0	 1	 0	 110	 18	 1.1	 0.9;
	 189	 1	 35.63	 11.8	 0	 2.07	 0	 1	 0	 110	 19	 1.1	 0.9;
	 190	 1	 12.46	 5.1	 0	 1.04	 0	 1	 0	 110	 18	 1.1	 0.9;
	 191	 1	 40.55	 11.6	 0	 1.8	 0	 1	 0	 110	 19	 1.1	 0.9;
	 192	 1	 37.69	-19.49	 0	 0.11	 0	 1	 0	 110	 19	 1.1	 0.9;
	 193	 1	 0	 0	 0	 4.93	 0	 1	 0	 110	 18	 1.1	 0.9;
	 194	 2	 0	 0	 0	 0	 0	 1	 0	 20	 18	 1.1	 0.9;
	 195	 1	 7.61	 0	 0	 6.6	 0	 1	 0	 110	 18	 1.1	 0.9;
	 196	 2	 0	 0	 0	 0	 0	 1	 0	 20	 18	 1.1	 0.9;
	 197	 1	-0	 0	 0	 0.46	 0	 1	 0	 110	 18	 1.1	 0.9;
	 198	 1	 7	 2.3	 0	 0.85	 0	 1	 0	 110	 19	 1.1	 0.9;
	 199	 1	-0	 0	 0.27075	 68.09435	 0	 1	 0	 380	 18	 1.2	 0.8;
	 200	 1	 231.23	 87.9	 0.119912	 0.300074	 0	 1	 0	 110	 18	 1.1	 0.9;
...
];

mpc_regionR2.gen = [
%	bus         Pg          Qg          Qmax        Qmin        Vg          mBase       status      Pmax        Pmin        Pc1         Pc2         Qc1min      Qc1max      Qc2min      Qc2max      ramp_agc    ramp_10     ramp_30     ramp_q      apf         
	 2	 50.7975	 0	 45	-45	 1	 100	 1	 90	 11.595;
	 22	 92.7475	 0	 88	-88	 1	 100	 1	 176	 9.495;
	 38	 169.7125	 0	 159	-159	 1	 100	 1	 318	 21.425;
	 63	 120.9825	 0	 117	-117	 1	 100	 1	 234	 7.965;
	 64	 164.8925	 0	 153	-153	 1	 100	 1	 305	 24.785;
	 68	 116.775	 0	 106	-106	 1	 100	 1	 212	 21.55;
	 81	 124.6125	 0	 118	-118	 1	 100	 1	 236	 13.225;
	 89	 53.105	 0	 49	-49	 1	 100	 1	 98	 8.21;
	 96	 112.4425	 0	 98	-98	 1	 100	 1	 195	 29.885;
	 103	 86.635	 0	 80	-80	 1	 100	 1	 160	 13.27;
	 104	 140.1175	 0	 134	-134	 1	 100	 1	 268	 12.235;
	 106	 103.3075	 0	 100	-100	 1	 100	 1	 200	 6.615;
	 117	 37.8325	 0	 35	-35	 1	 100	 1	 69	 6.665;
	 137	 33.1075	 0.5	 30	-29	 1	 100	 1	 58	 8.215;
	 139	 113.575	 0	 110	-110	 1	 100	 1	 220	 7.15;
	 159	 47.8875	 0	 44	-44	 1	 100	 1	 87	 8.775;
	 165	 85.3325	 0	 82	-82	 1	 100	 1	 164	 6.665;
	 182	 20.4975	 0	 18	-18	 1	 100	 1	 36	 4.995;
	 194	 47.655	 0	 41	-41	 1	 100	 1	 82	 13.31;
	 196	 32.6675	 0.5	 30	-29	 1	 100	 1	 57	 8.335;
	 210	 85.4175	 0	 76	-76	 1	 100	 1	 151	 19.835;
	 213	 60.8975	 0	 58	-58	 1	 100	 1	 115	 6.795;
	 234	 30.6625	 0	 29	-29	 1	 100	 1	 58	 3.325;
	 268	 433.5	 0	 409	-409	 1	 100	 1	 817	 50;
	 270	 358	 0	 333	-333	 1	 100	 1	 666	 50;
	 275	 276.7975	 0	 264	-264	 1	 100	 1	 527	 26.595;
	 286	 63.75	 0	 60	-60	 1	 100	 1	 120	 7.5;
	 287	 32.0375	 2	 30	-26	 1	 100	 1	 52	 12.075;
	 288	 35.5375	 0	 30	-30	 1	 100	 1	 59	 12.075;
	 289	 96.9775	 0	 85	-85	 1	 100	 1	 169	 24.955;
	 290	 67.1625	 0	 63	-63	 1	 100	 1	 126	 8.325;
	 292	 37.5625	 0	 33	-33	 1	 100	 1	 66	 9.125;
	 316	 177.5	 3.5	 160	-153	 1	 100	 1	 305	 50;
	 317	 211.5	 0	 187	-187	 1	 100	 1	 373	 50;
	 318	 193.5	 0	 169	-169	 1	 100	 1	 337	 50;
	 327	 47.0625	 0	 42	-42	 1	 100	 1	 83	 11.125;
	 328	 104.5625	 0	 99	-99	 1	 100	 1	 198	 11.125;
	 329	 36.0625	 0	 31	-31	 1	 100	 1	 61	 11.125;
	 330	 52.0625	 0	 47	-47	 1	 100	 1	 93	 11.125;
	 331	 62.6725	 0	 59	-59	 1	 100	 1	 117	 8.345;
	 332	 51.5125	 0	 47	-47	 1	 100	 1	 93	 10.025;
	 333	 94.0625	 0	 90	-90	 1	 100	 1	 180	 8.125;
	 339	 325.955	 0	 311	-311	 1	 100	 1	 622	 29.91;
	 345	 87.7275	 0	 84	-84	 1	 100	 1	 168	 7.455;
	 350	 30.6575	 0	 29	-29	 1	 100	 1	 58	 3.315;
	 366	 36.6425	 0	 33	-33	 1	 100	 1	 65	 8.285;
	 367	 53.7975	 0	 49	-49	 1	 100	 1	 97	 10.595;
	 372	 51.4425	 0	 47	-47	 1	 100	 1	 93	 9.885;
	 378	 45.5075	 0	 41	-41	 1	 100	 1	 81	 10.015;
	 379	 118.5075	 0	 114	-114	 1	 100	 1	 227	 10.015;
	 380	 32.46	 0	 28	-28	 1	 100	 1	 55	 9.92;
	 382	 33.4725	 0.5	 30	-29	 1	 100	 1	 57	 9.945;
	 398	 102.9275	 0	 99	-99	 1	 100	 1	 197	 8.855;
	 419	 59.0325	 0	 55	-55	 1	 100	 1	 109	 9.065;
	 425	 46.105	 0	 39	-39	 1	 100	 1	 78	 14.21;
	 443	 207.5	 0	 183	-183	 1	 100	 1	 365	 50;
	 444	 121	 18.8	 160	-122.4	 1	 100	 1	 192	 50;
	 449	 65.0375	 0	 59	-59	 1	 100	 1	 118	 12.075;
	 454	 36.635	 0	 32	-32	 1	 100	 1	 64	 9.27;
	 460	 31.1675	 1.5	 30	-27	 1	 100	 1	 54	 8.335;
	 461	 215.5	 22	 210	-166	 1	 100	 1	 331	 100;
	 464	 179.935	 0	 170	-170	 1	 100	 1	 339	 20.87;
	 471	 31.3875	 1	 30	-28	 1	 100	 1	 56	 6.775;
	 482	 102.3	 0	 98	-98	 1	 100	 1	 195	 9.6;
	 484	 56.13	 0	 50	-50	 1	 100	 1	 99	 13.26;
	 485	 68.3325	 0	 65	-65	 1	 100	 1	 130	 6.665;
	 486	 26.8325	 3	 30	-24	 1	 100	 1	 47	 6.665;
	 488	 434.5	 0	 385	-385	 1	 100	 1	 769	 100;
	 491	 162	 36.5	 210	-137	 1	 100	 1	 274	 50;
	 492	 88.3075	 0	 74	-74	 1	 100	 1	 147	 29.615;
	 512	 74.3275	 0	 71	-71	 1	 100	 1	 142	 6.655;
	 513	 75.6175	 0	 70	-70	 1	 100	 1	 139	 12.235;
	 514	 34.6175	 0.5	 30	-29	 1	 100	 1	 57	 12.235;
	 526	 106.7975	 0	 102	-102	 1	 100	 1	 203	 10.595;
	 529	 259.5	-12	 210	-234	 1	 100	 1	 419	 100;
	 530	 442	 0	 417	-417	 1	 100	 1	 834	 50;
	 531	 162	 36.5	 210	-137	 1	 100	 1	 274	 50;
	 532	 131.5	-1.8	 210	-213.6	 1	 100	 1	 213	 50;
	 533	 435.5	 0	 411	-411	 1	 100	 1	 821	 50;
	 534	 240.5	 0	 216	-216	 1	 100	 1	 431	 50;
	 535	 200	-12	 210	-234	 1	 100	 1	 300	 100;
	 539	 105.4725	 0	 101	-101	 1	 100	 1	 201	 9.945;
	 544	 229.155	 0	 205	-205	 1	 100	 1	 409	 49.31;
	 545	 49.9825	 8.5	 60	-43	 1	 100	 1	 85	 14.965;
	 560	 149.6875	 0	 138	-138	 1	 100	 1	 276	 23.375;
	 561	 52.1875	 9.5	 60	-41	 1	 100	 1	 81	 23.375;
	 563	 53.635	 0	 50	-50	 1	 100	 1	 99	 8.27;
	 566	 434	 0	 409	-409	 1	 100	 1	 818	 50;
	 567	 130.955	 0	 116	-116	 1	 100	 1	 232	 29.91;
	 569	 16.42	 0	 14	-14	 1	 100	 1	 28	 4.84;
	 576	 76.525	 0	 71	-71	 1	 100	 1	 142	 11.05;
	 585	 85.775	 0	 75	-75	 1	 100	 1	 150	 21.55;
	 601	 147.2125	 0	 137	-137	 1	 100	 1	 273	 21.425;
	 602	 55.8125	 0	 52	-52	 1	 100	 1	 104	 7.625;
	 609	 67.6425	 0	 64	-64	 1	 100	 1	 127	 8.285;
	 612	 266	 0	 216	-216	 1	 100	 1	 432	 100;
	 614	 130.935	 0	 121	-121	 1	 100	 1	 241	 20.87;
	 631	 45.9825	 0	 41	-41	 1	 100	 1	 82	 9.965;
	 638	 120.0625	 0	 115	-115	 1	 100	 1	 229	 11.125;
	 647	 31.0325	 2	 30	-26	 1	 100	 1	 51	 11.065;
	 650	 119.3	 0	 115	-115	 1	 100	 1	 229	 9.6;
	 656	 619.5	 25	 520	-470	 1	 100	 1	 939	 300;
	 660	 81.8075	 0	 71	-71	 1	 100	 1	 142	 21.615;
	 661	 87.3075	 0	 77	-77	 1	 100	 1	 153	 21.615;
	 673	 193.805	 0	 186	-186	 1	 100	 1	 371	 16.61;
	 681	 59.9825	 0	 55	-55	 1	 100	 1	 110	 9.965;
	 690	 60.14	 0	 58	-58	 1	 100	 1	 115	 5.28;
	 732	 34.64	 0	 31	-31	 1	 100	 1	 61	 8.28;
	 751	 60.1075	 0	 56	-56	 1	 100	 1	 112	 8.215;
	 752	 31.3675	 2	 30	-26	 1	 100	 1	 52	 10.735;
	 756	 81.0475	 0	 77	-77	 1	 100	 1	 154	 8.095;
	 764	 84.9825	 0	 78	-78	 1	 100	 1	 155	 14.965;
	 772	 28.485	 2.5	 30	-25	 1	 100	 1	 49	 7.97;
	 775	 128.7475	 0	 124	-124	 1	 100	 1	 248	 9.495;
	 778	 42.5625	 0	 39	-39	 1	 100	 1	 77	 8.125;
	 811	 87.9425	 0	 94.8	-94.8	 1	 100	 1	 146	 29.885;
	 824	 78.9825	 0	 75	-75	 1	 100	 1	 150	 7.965;
	 827	 78.8075	 0	 64	-64	 1	 100	 1	 128	 29.615;
	 842	 74.5325	 0	 69	-69	 1	 100	 1	 138	 11.065;
	 845	 107.66	 0	 101	-101	 1	 100	 1	 202	 13.32;
	 863	 31.665	 1	 30	-28	 1	 100	 1	 55	 8.33;
	 873	 31.725	 1.5	 30	-27	 1	 100	 1	 54	 9.45;
	 874	 77.8875	 0	 74	-74	 1	 100	 1	 147	 8.775;
	 879	 44.3325	 0	 41	-41	 1	 100	 1	 82	 6.665;
	 894	 75.105	 0	 71	-71	 1	 100	 1	 142	 8.21;
	 895	 56.075	 0	 53	-53	 1	 100	 1	 105	 7.15;
	 909	 106.8925	 0	 95	-95	 1	 100	 1	 189	 24.785;
	 913	 51.4725	 0	 47	-47	 1	 100	 1	 93	 9.945;
	 914	 35.64	 0	 33	-33	 1	 100	 1	 66	 5.28;
	 932	 95.95	 0	 91	-91	 1	 100	 1	 182	 9.9;
	 937	 102.0625	 0	 98	-98	 1	 100	 1	 195	 9.125;
	 939	 95.9775	 0	 84	-84	 1	 100	 1	 167	 24.955;
	 947	 103.725	 0	 99	-99	 1	 100	 1	 198	 9.45;
	 953	 199.9175	 0	 190	-190	 1	 100	 1	 380	 19.835;
	 958	 372	 124	 520	-272	 1	 100	 1	 544	 200;
	 961	 61.2275	 0	 58	-58	 1	 100	 1	 115	 7.455;
	 971	 393	 0	 368	-368	 1	 100	 1	 736	 50;
	 976	 127.5475	 0	 124	-124	 1	 100	 1	 247	 8.095;
	 978	 81.2975	 0	 68	-68	 1	 100	 1	 136	 26.595;
	 982	 86.45	 0	 82	-82	 1	 100	 1	 163	 9.9;
...